WIDTH=24;
DEPTH=2048;

ADDRESS_RADIX=HEX;
DATA_RADIX=HEX;

CONTENT BEGIN

    0 : 000;
    1 : 000;
    2 : 000;
    3 : 000;
    4 : 000;
    5 : 000;
    6 : 000;
    7 : 000;
    8 : 000;
    9 : 000;
    A : 000;
    B : 000;
    C : 000;
    D : 000;
    E : 000;
    F : 000;
    10 : 000;
    11 : 000;
    12 : 000;
    13 : 000;
    14 : 000;
    15 : 000;
    16 : 000;
    17 : 000;
    18 : 000;
    19 : 000;
    1A : 000;
    1B : 000;
    1C : 000;
    1D : 000;
    1E : 000;
    1F : 000;
    20 : 000;
    21 : 000;
    22 : 000;
    23 : 000;
    24 : 000;
    25 : 000;
    26 : 000;
    27 : 000;
    28 : 000;
    29 : 000;
    2A : 000;
    2B : 000;
    2C : 000;
    2D : 000;
    2E : 000;
    2F : 000;
    30 : 000;
    31 : 000;
    32 : 000;
    33 : 000;
    34 : 000;
    35 : 000;
    36 : 000;
    37 : 000;
    38 : 000;
    39 : 000;
    3A : 000;
    3B : 000;
    3C : 000;
    3D : 000;
    3E : 000;
    3F : 000;
    40 : 000;
    41 : 000;
    42 : 000;
    43 : 000;
    44 : 000;
    45 : 000;
    46 : 000;
    47 : 000;
    48 : 000;
    49 : 000;
    4A : 000;
    4B : 000;
    4C : 000;
    4D : 000;
    4E : 000;
    4F : 000;
    50 : 000;
    51 : 000;
    52 : 000;
    53 : 000;
    54 : 000;
    55 : 000;
    56 : 000;
    57 : 000;
    58 : 000;
    59 : 000;
    5A : 000;
    5B : 000;
    5C : 000;
    5D : 000;
    5E : 000;
    5F : 000;
    60 : 000;
    61 : 000;
    62 : 000;
    63 : 000;
    64 : 000;
    65 : 000;
    66 : 000;
    67 : 000;
    68 : 000;
    69 : 000;
    6A : 000;
    6B : 000;
    6C : 000;
    6D : 000;
    6E : 000;
    6F : 000;
    70 : 000;
    71 : 000;
    72 : 000;
    73 : 000;
    74 : 000;
    75 : 000;
    76 : 000;
    77 : 000;
    78 : 000;
    79 : 000;
    7A : 000;
    7B : 000;
    7C : 000;
    7D : 000;
    7E : 000;
    7F : 000;
    80 : 000;
    81 : 000;
    82 : 000;
    83 : 000;
    84 : 000;
    85 : 000;
    86 : 000;
    87 : 000;
    88 : 000;
    89 : 000;
    8A : 000;
    8B : 000;
    8C : 000;
    8D : 000;
    8E : 000;
    8F : 000;
    90 : 000;
    91 : 000;
    92 : 000;
    93 : 000;
    94 : 000;
    95 : 000;
    96 : 000;
    97 : 000;
    98 : 000;
    99 : 000;
    9A : 000;
    9B : 000;
    9C : 000;
    9D : 000;
    9E : 000;
    9F : 000;
    A0 : 000;
    A1 : 000;
    A2 : 000;
    A3 : 000;
    A4 : 000;
    A5 : 000;
    A6 : 000;
    A7 : 000;
    A8 : 000;
    A9 : 000;
    AA : 000;
    AB : 000;
    AC : 000;
    AD : 000;
    AE : 000;
    AF : 000;
    B0 : 000;
    B1 : 000;
    B2 : 000;
    B3 : 000;
    B4 : 000;
    B5 : 000;
    B6 : 000;
    B7 : 000;
    B8 : 000;
    B9 : 000;
    BA : 000;
    BB : 000;
    BC : 000;
    BD : 000;
    BE : 000;
    BF : 000;
    C0 : 000;
    C1 : 000;
    C2 : 000;
    C3 : 000;
    C4 : 000;
    C5 : 000;
    C6 : 000;
    C7 : 000;
    C8 : 000;
    C9 : 000;
    CA : 000;
    CB : 000;
    CC : 000;
    CD : 000;
    CE : 000;
    CF : 000;
    D0 : 000;
    D1 : 000;
    D2 : 000;
    D3 : 000;
    D4 : 000;
    D5 : 000;
    D6 : 000;
    D7 : 000;
    D8 : 000;
    D9 : 000;
    DA : 000;
    DB : 000;
    DC : 000;
    DD : 000;
    DE : 000;
    DF : 000;
    E0 : 000;
    E1 : 000;
    E2 : 000;
    E3 : 000;
    E4 : 000;
    E5 : 000;
    E6 : 000;
    E7 : 000;
    E8 : 000;
    E9 : 000;
    EA : 000;
    EB : 000;
    EC : 000;
    ED : 000;
    EE : 000;
    EF : 000;
    F0 : 000;
    F1 : 000;
    F2 : 000;
    F3 : 000;
    F4 : 000;
    F5 : 000;
    F6 : 000;
    F7 : 000;
    F8 : 000;
    F9 : 000;
    FA : 000;
    FB : 000;
    FC : 000;
    FD : 000;
    FE : 000;
    FF : 000;
    100 : 000;
    101 : 000;
    102 : 7F7F7F;
    103 : 7F7F7F;
    104 : 7F7F7F;
    105 : 7F7F7F;
    106 : 7F7F7F;
    107 : 7F7F7F;
    108 : 7F7F7F;
    109 : 7F7F7F;
    10A : 7F7F7F;
    10B : 7F7F7F;
    10C : 7F7F7F;
    10D : 7F7F7F;
    10E : 7F7F7F;
    10F : 7F7F7F;
    110 : 7F7F7F;
    111 : 7F7F7F;
    112 : 7F7F7F;
    113 : 7F7F7F;
    114 : 7F7F7F;
    115 : 7F7F7F;
    116 : 7F7F7F;
    117 : 7F7F7F;
    118 : 7F7F7F;
    119 : 7F7F7F;
    11A : 7F7F7F;
    11B : 7F7F7F;
    11C : 7F7F7F;
    11D : 7F7F7F;
    11E : 000;
    11F : 000;
    120 : 000;
    121 : 000;
    122 : 7F7F7F;
    123 : 7F7F7F;
    124 : 7F7F7F;
    125 : 7F7F7F;
    126 : 7F7F7F;
    127 : 7F7F7F;
    128 : 7F7F7F;
    129 : 7F7F7F;
    12A : 7F7F7F;
    12B : 7F7F7F;
    12C : 7F7F7F;
    12D : 7F7F7F;
    12E : 7F7F7F;
    12F : 7F7F7F;
    130 : 7F7F7F;
    131 : 7F7F7F;
    132 : 7F7F7F;
    133 : 7F7F7F;
    134 : 7F7F7F;
    135 : 7F7F7F;
    136 : 7F7F7F;
    137 : 7F7F7F;
    138 : 7F7F7F;
    139 : 7F7F7F;
    13A : 7F7F7F;
    13B : 7F7F7F;
    13C : 7F7F7F;
    13D : 7F7F7F;
    13E : 000;
    13F : 000;
    140 : 000;
    141 : 000;
    142 : 7F7F7F;
    143 : 7F7F7F;
    144 : 7F7F7F;
    145 : 7F7F7F;
    146 : 7F7F7F;
    147 : 7F7F7F;
    148 : 7F7F7F;
    149 : 7F7F7F;
    14A : 7F7F7F;
    14B : 7F7F7F;
    14C : 7F7F7F;
    14D : 7F7F7F;
    14E : 7F7F7F;
    14F : 7F7F7F;
    150 : 7F7F7F;
    151 : 7F7F7F;
    152 : 7F7F7F;
    153 : 7F7F7F;
    154 : 7F7F7F;
    155 : 7F7F7F;
    156 : 7F7F7F;
    157 : 7F7F7F;
    158 : 7F7F7F;
    159 : 7F7F7F;
    15A : 7F7F7F;
    15B : 7F7F7F;
    15C : 7F7F7F;
    15D : 7F7F7F;
    15E : 000;
    15F : 000;
    160 : 000;
    161 : 000;
    162 : 7F7F7F;
    163 : 7F7F7F;
    164 : 7F7F7F;
    165 : 7F7F7F;
    166 : 7F7F7F;
    167 : 7F7F7F;
    168 : 7F7F7F;
    169 : 7F7F7F;
    16A : 7F7F7F;
    16B : 7F7F7F;
    16C : 7F7F7F;
    16D : 7F7F7F;
    16E : 7F7F7F;
    16F : 7F7F7F;
    170 : 7F7F7F;
    171 : 7F7F7F;
    172 : 7F7F7F;
    173 : 7F7F7F;
    174 : 7F7F7F;
    175 : 7F7F7F;
    176 : 7F7F7F;
    177 : 7F7F7F;
    178 : 7F7F7F;
    179 : 7F7F7F;
    17A : 7F7F7F;
    17B : 7F7F7F;
    17C : 7F7F7F;
    17D : 7F7F7F;
    17E : 000;
    17F : 000;
    180 : 000;
    181 : 000;
    182 : 7F7F7F;
    183 : 7F7F7F;
    184 : 7F7F7F;
    185 : 7F7F7F;
    186 : 7F7F7F;
    187 : 7F7F7F;
    188 : 7F7F7F;
    189 : 7F7F7F;
    18A : 7F7F7F;
    18B : 7F7F7F;
    18C : 7F7F7F;
    18D : 7F7F7F;
    18E : 7F7F7F;
    18F : 7F7F7F;
    190 : 7F7F7F;
    191 : 7F7F7F;
    192 : 7F7F7F;
    193 : 7F7F7F;
    194 : 7F7F7F;
    195 : 7F7F7F;
    196 : 7F7F7F;
    197 : 7F7F7F;
    198 : 7F7F7F;
    199 : 7F7F7F;
    19A : 7F7F7F;
    19B : 7F7F7F;
    19C : 7F7F7F;
    19D : 7F7F7F;
    19E : 000;
    19F : 000;
    1A0 : 000;
    1A1 : 000;
    1A2 : 7F7F7F;
    1A3 : 7F7F7F;
    1A4 : 7F7F7F;
    1A5 : 7F7F7F;
    1A6 : 7F7F7F;
    1A7 : 7F7F7F;
    1A8 : 7F7F7F;
    1A9 : 7F7F7F;
    1AA : 7F7F7F;
    1AB : 7F7F7F;
    1AC : 7F7F7F;
    1AD : 7F7F7F;
    1AE : 7F7F7F;
    1AF : 7F7F7F;
    1B0 : 7F7F7F;
    1B1 : 7F7F7F;
    1B2 : 7F7F7F;
    1B3 : 7F7F7F;
    1B4 : 7F7F7F;
    1B5 : 7F7F7F;
    1B6 : 7F7F7F;
    1B7 : 7F7F7F;
    1B8 : 7F7F7F;
    1B9 : 7F7F7F;
    1BA : 7F7F7F;
    1BB : 7F7F7F;
    1BC : 7F7F7F;
    1BD : 7F7F7F;
    1BE : 000;
    1BF : 000;
    1C0 : 000;
    1C1 : 000;
    1C2 : 7F7F7F;
    1C3 : 7F7F7F;
    1C4 : 7F7F7F;
    1C5 : 7F7F7F;
    1C6 : 7F7F7F;
    1C7 : 7F7F7F;
    1C8 : 7F7F7F;
    1C9 : 7F7F7F;
    1CA : 7F7F7F;
    1CB : 7F7F7F;
    1CC : 7F7F7F;
    1CD : 7F7F7F;
    1CE : 7F7F7F;
    1CF : 7F7F7F;
    1D0 : 7F7F7F;
    1D1 : 7F7F7F;
    1D2 : 7F7F7F;
    1D3 : 7F7F7F;
    1D4 : 7F7F7F;
    1D5 : 7F7F7F;
    1D6 : 7F7F7F;
    1D7 : 7F7F7F;
    1D8 : 7F7F7F;
    1D9 : 7F7F7F;
    1DA : 7F7F7F;
    1DB : 7F7F7F;
    1DC : 7F7F7F;
    1DD : 7F7F7F;
    1DE : 000;
    1DF : 000;
    1E0 : 000;
    1E1 : 000;
    1E2 : 7F7F7F;
    1E3 : 7F7F7F;
    1E4 : 7F7F7F;
    1E5 : 7F7F7F;
    1E6 : 7F7F7F;
    1E7 : 7F7F7F;
    1E8 : 7F7F7F;
    1E9 : 7F7F7F;
    1EA : 7F7F7F;
    1EB : 7F7F7F;
    1EC : 7F7F7F;
    1ED : 7F7F7F;
    1EE : 7F7F7F;
    1EF : 7F7F7F;
    1F0 : 7F7F7F;
    1F1 : 7F7F7F;
    1F2 : 7F7F7F;
    1F3 : 7F7F7F;
    1F4 : 7F7F7F;
    1F5 : 7F7F7F;
    1F6 : 7F7F7F;
    1F7 : 7F7F7F;
    1F8 : 7F7F7F;
    1F9 : 7F7F7F;
    1FA : 7F7F7F;
    1FB : 7F7F7F;
    1FC : 7F7F7F;
    1FD : 7F7F7F;
    1FE : 000;
    1FF : 000;
    200 : 000;
    201 : 000;
    202 : 7F7F7F;
    203 : 7F7F7F;
    204 : 7F7F7F;
    205 : 7F7F7F;
    206 : 7F7F7F;
    207 : 7F7F7F;
    208 : 7F7F7F;
    209 : 7F7F7F;
    20A : 7F7F7F;
    20B : 7F7F7F;
    20C : 7F7F7F;
    20D : 7F7F7F;
    20E : 7F7F7F;
    20F : 7F7F7F;
    210 : 7F7F7F;
    211 : 7F7F7F;
    212 : 7F7F7F;
    213 : 7F7F7F;
    214 : 7F7F7F;
    215 : 7F7F7F;
    216 : 7F7F7F;
    217 : 7F7F7F;
    218 : 7F7F7F;
    219 : 7F7F7F;
    21A : 7F7F7F;
    21B : 7F7F7F;
    21C : 7F7F7F;
    21D : 7F7F7F;
    21E : 000;
    21F : 000;
    220 : 000;
    221 : 000;
    222 : 7F7F7F;
    223 : 7F7F7F;
    224 : 7F7F7F;
    225 : 7F7F7F;
    226 : 7F7F7F;
    227 : 7F7F7F;
    228 : 7F7F7F;
    229 : 7F7F7F;
    22A : 7F7F7F;
    22B : 7F7F7F;
    22C : 7F7F7F;
    22D : 7F7F7F;
    22E : 7F7F7F;
    22F : 7F7F7F;
    230 : 7F7F7F;
    231 : 7F7F7F;
    232 : 7F7F7F;
    233 : 7F7F7F;
    234 : 7F7F7F;
    235 : 7F7F7F;
    236 : 7F7F7F;
    237 : 7F7F7F;
    238 : 7F7F7F;
    239 : 7F7F7F;
    23A : 7F7F7F;
    23B : 7F7F7F;
    23C : 7F7F7F;
    23D : 7F7F7F;
    23E : 000;
    23F : 000;
    240 : 000;
    241 : 000;
    242 : 7F7F7F;
    243 : 7F7F7F;
    244 : 7F7F7F;
    245 : 7F7F7F;
    246 : 7F7F7F;
    247 : 7F7F7F;
    248 : 7F7F7F;
    249 : 7F7F7F;
    24A : 7F7F7F;
    24B : 7F7F7F;
    24C : 7F7F7F;
    24D : 7F7F7F;
    24E : 7F7F7F;
    24F : 7F7F7F;
    250 : 7F7F7F;
    251 : 7F7F7F;
    252 : 7F7F7F;
    253 : 7F7F7F;
    254 : 7F7F7F;
    255 : 7F7F7F;
    256 : 7F7F7F;
    257 : 7F7F7F;
    258 : 7F7F7F;
    259 : 7F7F7F;
    25A : 7F7F7F;
    25B : 7F7F7F;
    25C : 7F7F7F;
    25D : 7F7F7F;
    25E : 000;
    25F : 000;
    260 : 000;
    261 : 000;
    262 : 7F7F7F;
    263 : 7F7F7F;
    264 : 7F7F7F;
    265 : 7F7F7F;
    266 : 7F7F7F;
    267 : 7F7F7F;
    268 : 7F7F7F;
    269 : 7F7F7F;
    26A : 7F7F7F;
    26B : 7F7F7F;
    26C : 7F7F7F;
    26D : 7F7F7F;
    26E : 7F7F7F;
    26F : 7F7F7F;
    270 : 7F7F7F;
    271 : 7F7F7F;
    272 : 7F7F7F;
    273 : 7F7F7F;
    274 : 7F7F7F;
    275 : 7F7F7F;
    276 : 7F7F7F;
    277 : 7F7F7F;
    278 : 7F7F7F;
    279 : 7F7F7F;
    27A : 7F7F7F;
    27B : 7F7F7F;
    27C : 7F7F7F;
    27D : 7F7F7F;
    27E : 000;
    27F : 000;
    280 : 000;
    281 : 000;
    282 : 7F7F7F;
    283 : 7F7F7F;
    284 : 7F7F7F;
    285 : 7F7F7F;
    286 : 7F7F7F;
    287 : 7F7F7F;
    288 : 7F7F7F;
    289 : 7F7F7F;
    28A : 7F7F7F;
    28B : 7F7F7F;
    28C : 7F7F7F;
    28D : 7F7F7F;
    28E : 7F7F7F;
    28F : 7F7F7F;
    290 : 7F7F7F;
    291 : 7F7F7F;
    292 : 7F7F7F;
    293 : 7F7F7F;
    294 : 7F7F7F;
    295 : 7F7F7F;
    296 : 7F7F7F;
    297 : 7F7F7F;
    298 : 7F7F7F;
    299 : 7F7F7F;
    29A : 7F7F7F;
    29B : 7F7F7F;
    29C : 7F7F7F;
    29D : 7F7F7F;
    29E : 000;
    29F : 000;
    2A0 : 000;
    2A1 : 000;
    2A2 : 7F7F7F;
    2A3 : 7F7F7F;
    2A4 : 7F7F7F;
    2A5 : 7F7F7F;
    2A6 : 7F7F7F;
    2A7 : 7F7F7F;
    2A8 : 7F7F7F;
    2A9 : 7F7F7F;
    2AA : 7F7F7F;
    2AB : 7F7F7F;
    2AC : 7F7F7F;
    2AD : 7F7F7F;
    2AE : 7F7F7F;
    2AF : 7F7F7F;
    2B0 : 7F7F7F;
    2B1 : 7F7F7F;
    2B2 : 7F7F7F;
    2B3 : 7F7F7F;
    2B4 : 7F7F7F;
    2B5 : 7F7F7F;
    2B6 : 7F7F7F;
    2B7 : 7F7F7F;
    2B8 : 7F7F7F;
    2B9 : 7F7F7F;
    2BA : 7F7F7F;
    2BB : 7F7F7F;
    2BC : 7F7F7F;
    2BD : 7F7F7F;
    2BE : 000;
    2BF : 000;
    2C0 : 000;
    2C1 : 000;
    2C2 : 7F7F7F;
    2C3 : 7F7F7F;
    2C4 : 7F7F7F;
    2C5 : 7F7F7F;
    2C6 : 7F7F7F;
    2C7 : 7F7F7F;
    2C8 : 7F7F7F;
    2C9 : 7F7F7F;
    2CA : 7F7F7F;
    2CB : 7F7F7F;
    2CC : 7F7F7F;
    2CD : 7F7F7F;
    2CE : 7F7F7F;
    2CF : 7F7F7F;
    2D0 : 7F7F7F;
    2D1 : 7F7F7F;
    2D2 : 7F7F7F;
    2D3 : 7F7F7F;
    2D4 : 7F7F7F;
    2D5 : 7F7F7F;
    2D6 : 7F7F7F;
    2D7 : 7F7F7F;
    2D8 : 7F7F7F;
    2D9 : 7F7F7F;
    2DA : 7F7F7F;
    2DB : 7F7F7F;
    2DC : 7F7F7F;
    2DD : 7F7F7F;
    2DE : 000;
    2DF : 000;
    2E0 : 000;
    2E1 : 000;
    2E2 : 7F7F7F;
    2E3 : 7F7F7F;
    2E4 : 7F7F7F;
    2E5 : 7F7F7F;
    2E6 : 7F7F7F;
    2E7 : 7F7F7F;
    2E8 : 7F7F7F;
    2E9 : 7F7F7F;
    2EA : 7F7F7F;
    2EB : 7F7F7F;
    2EC : 7F7F7F;
    2ED : 7F7F7F;
    2EE : 7F7F7F;
    2EF : 7F7F7F;
    2F0 : 7F7F7F;
    2F1 : 7F7F7F;
    2F2 : 7F7F7F;
    2F3 : 7F7F7F;
    2F4 : 7F7F7F;
    2F5 : 7F7F7F;
    2F6 : 7F7F7F;
    2F7 : 7F7F7F;
    2F8 : 7F7F7F;
    2F9 : 7F7F7F;
    2FA : 7F7F7F;
    2FB : 7F7F7F;
    2FC : 7F7F7F;
    2FD : 7F7F7F;
    2FE : 000;
    2FF : 000;
    300 : 000;
    301 : 000;
    302 : 7F7F7F;
    303 : 7F7F7F;
    304 : 7F7F7F;
    305 : 7F7F7F;
    306 : 7F7F7F;
    307 : 7F7F7F;
    308 : 7F7F7F;
    309 : 7F7F7F;
    30A : 7F7F7F;
    30B : 7F7F7F;
    30C : 7F7F7F;
    30D : 7F7F7F;
    30E : 7F7F7F;
    30F : 7F7F7F;
    310 : 7F7F7F;
    311 : 7F7F7F;
    312 : 7F7F7F;
    313 : 7F7F7F;
    314 : 7F7F7F;
    315 : 7F7F7F;
    316 : 7F7F7F;
    317 : 7F7F7F;
    318 : 7F7F7F;
    319 : 7F7F7F;
    31A : 7F7F7F;
    31B : 7F7F7F;
    31C : 7F7F7F;
    31D : 7F7F7F;
    31E : 000;
    31F : 000;
    320 : 000;
    321 : 000;
    322 : 7F7F7F;
    323 : 7F7F7F;
    324 : 7F7F7F;
    325 : 7F7F7F;
    326 : 7F7F7F;
    327 : 7F7F7F;
    328 : 7F7F7F;
    329 : 7F7F7F;
    32A : 7F7F7F;
    32B : 7F7F7F;
    32C : 1CBA95;
    32D : F2FF;
    32E : F2FF;
    32F : F2FF;
    330 : F2FF;
    331 : 47DFFF;
    332 : 7F7F95;
    333 : 7F7F7F;
    334 : 7F7F7F;
    335 : 7F7F7F;
    336 : 7F7F7F;
    337 : 7F7F7F;
    338 : 7F7F7F;
    339 : 7F7F7F;
    33A : 7F7F7F;
    33B : 7F7F7F;
    33C : 7F7F7F;
    33D : 7F7F7F;
    33E : 000;
    33F : 000;
    340 : 000;
    341 : 000;
    342 : 7F7F7F;
    343 : 7F7F7F;
    344 : 7F7F7F;
    345 : 7F7F7F;
    346 : 7F7F7F;
    347 : 7F7F7F;
    348 : 7F7F7F;
    349 : 7F7F7F;
    34A : 7F7F7F;
    34B : 7F7F7F;
    34C : 7F7F7F;
    34D : 7F7F7F;
    34E : 7F7F7F;
    34F : 7F7F7F;
    350 : 7F7F7F;
    351 : 7F7F7F;
    352 : 7F7F7F;
    353 : 7F7F7F;
    354 : 7F7F7F;
    355 : 7F7F7F;
    356 : 7F7F7F;
    357 : 7F7F7F;
    358 : 7F7F7F;
    359 : 7F7F7F;
    35A : 7F7F7F;
    35B : 7F7F7F;
    35C : 7F7F7F;
    35D : 7F7F7F;
    35E : 000;
    35F : 000;
    360 : 000;
    361 : 000;
    362 : 7F7F7F;
    363 : 7F7F7F;
    364 : 7F7F7F;
    365 : 7F7F7F;
    366 : 7F7F7F;
    367 : 7F7F7F;
    368 : 7F7F7F;
    369 : 7F7F7F;
    36A : 7F7F7F;
    36B : 7F7F7F;
    36C : 7F7F7F;
    36D : 7F7F7F;
    36E : 7F7F7F;
    36F : 7F7F7F;
    370 : 7F7F7F;
    371 : 7F7F7F;
    372 : 7F7F7F;
    373 : 7F7F7F;
    374 : 7F7F7F;
    375 : 7F7F7F;
    376 : 7F7F7F;
    377 : 7F7F7F;
    378 : 7F7F7F;
    379 : 7F7F7F;
    37A : 7F7F7F;
    37B : 7F7F7F;
    37C : 7F7F7F;
    37D : 7F7F7F;
    37E : 000;
    37F : 000;
    380 : 000;
    381 : 000;
    382 : 7F7F7F;
    383 : 7F7F7F;
    384 : 7F7F7F;
    385 : 7F7F7F;
    386 : 7F7F7F;
    387 : 7F7F7F;
    388 : 7F7F7F;
    389 : 7F7F7F;
    38A : 7F7F7F;
    38B : 7F7F7F;
    38C : 7F7F7F;
    38D : 7F7F7F;
    38E : 7F7F7F;
    38F : CDAB;
    390 : F2FF;
    391 : F2FF;
    392 : 33F2FF;
    393 : 7F7FAB;
    394 : 7F7F7F;
    395 : 7F7F7F;
    396 : 7F7F7F;
    397 : 7F7F7F;
    398 : 7F7F7F;
    399 : 7F7F7F;
    39A : 7F7F7F;
    39B : 7F7F7F;
    39C : 7F7F7F;
    39D : 7F7F7F;
    39E : 000;
    39F : 000;
    3A0 : 000;
    3A1 : 000;
    3A2 : 7F7F7F;
    3A3 : 7F7F7F;
    3A4 : 7F7F7F;
    3A5 : 7F7F7F;
    3A6 : 7F7F7F;
    3A7 : 7F7F7F;
    3A8 : 7F7F7F;
    3A9 : 7F7F7F;
    3AA : 5A7F7F;
    3AB : F2D6;
    3AC : F2FF;
    3AD : F2FF;
    3AE : F2FF;
    3AF : F2FF;
    3B0 : F2FF;
    3B1 : F2FF;
    3B2 : F2FF;
    3B3 : 7FA7D6;
    3B4 : 7F7F7F;
    3B5 : 7F7F7F;
    3B6 : 7F7F7F;
    3B7 : 7F7F7F;
    3B8 : 7F7F7F;
    3B9 : 7F7F7F;
    3BA : 7F7F7F;
    3BB : 7F7F7F;
    3BC : 7F7F7F;
    3BD : 7F7F7F;
    3BE : 000;
    3BF : 000;
    3C0 : 000;
    3C1 : 000;
    3C2 : 7F7F7F;
    3C3 : 7F7F7F;
    3C4 : 7F7F7F;
    3C5 : 7F7F7F;
    3C6 : 7F7F7F;
    3C7 : 7F7F7F;
    3C8 : 7F7F7F;
    3C9 : 7F7F7F;
    3CA : 7F7F7F;
    3CB : 7F7F7F;
    3CC : 7F7F7F;
    3CD : 33A77F;
    3CE : F2FF;
    3CF : F2FF;
    3D0 : F2FF;
    3D1 : F2FF;
    3D2 : F2FF;
    3D3 : 7FA7D6;
    3D4 : 7F7F7F;
    3D5 : 7F7F7F;
    3D6 : 7F7F7F;
    3D7 : 7F7F7F;
    3D8 : 7F7F7F;
    3D9 : 7F7F7F;
    3DA : 7F7F7F;
    3DB : 7F7F7F;
    3DC : 7F7F7F;
    3DD : 7F7F7F;
    3DE : 000;
    3DF : 000;
    3E0 : 000;
    3E1 : 000;
    3E2 : 7F7F7F;
    3E3 : 7F7F7F;
    3E4 : 7F7F7F;
    3E5 : 7F7F7F;
    3E6 : 7F7F7F;
    3E7 : 7F7F7F;
    3E8 : 7F7F7F;
    3E9 : 7F7F7F;
    3EA : 7F7F7F;
    3EB : 7F7F7F;
    3EC : 7F7F7F;
    3ED : 7F7F7F;
    3EE : 7F7F7F;
    3EF : 5A7F7F;
    3F0 : F2D6;
    3F1 : F2FF;
    3F2 : F2FF;
    3F3 : 7FA7D6;
    3F4 : 7F7F7F;
    3F5 : 7F7F7F;
    3F6 : 7F7F7F;
    3F7 : 7F7F7F;
    3F8 : 7F7F7F;
    3F9 : 7F7F7F;
    3FA : 7F7F7F;
    3FB : 7F7F7F;
    3FC : 7F7F7F;
    3FD : 7F7F7F;
    3FE : 000;
    3FF : 000;
    400 : 000;
    401 : 000;
    402 : 7F7F7F;
    403 : 7F7F7F;
    404 : 7F7F7F;
    405 : 7F7F7F;
    406 : 7F7F7F;
    407 : 7F7F7F;
    408 : 7F7F7F;
    409 : 7F7F7F;
    40A : 7F7F7F;
    40B : 7F7F7F;
    40C : 7F7F7F;
    40D : 7F7F7F;
    40E : 33A77F;
    40F : F2FF;
    410 : F2FF;
    411 : F2FF;
    412 : 33F2FF;
    413 : 7F7FAB;
    414 : 7F7F7F;
    415 : 7F7F7F;
    416 : 7F7F7F;
    417 : 7F7F7F;
    418 : 7F7F7F;
    419 : 7F7F7F;
    41A : 7F7F7F;
    41B : 7F7F7F;
    41C : 7F7F7F;
    41D : 7F7F7F;
    41E : 000;
    41F : 000;
    420 : 000;
    421 : 000;
    422 : 7F7F7F;
    423 : 7F7F7F;
    424 : 7F7F7F;
    425 : 7F7F7F;
    426 : 7F7F7F;
    427 : 7F7F7F;
    428 : 7F7F7F;
    429 : 6D7F7F;
    42A : DFC1;
    42B : F2FF;
    42C : F2FF;
    42D : F2FF;
    42E : F2FF;
    42F : F2FF;
    430 : F2FF;
    431 : F2FF;
    432 : F2FF;
    433 : 1CF2FF;
    434 : 7F93C1;
    435 : 7F7F7F;
    436 : 7F7F7F;
    437 : 7F7F7F;
    438 : 7F7F7F;
    439 : 7F7F7F;
    43A : 7F7F7F;
    43B : 7F7F7F;
    43C : 7F7F7F;
    43D : 7F7F7F;
    43E : 000;
    43F : 000;
    440 : 000;
    441 : 000;
    442 : 7F7F7F;
    443 : 7F7F7F;
    444 : 7F7F7F;
    445 : 7F7F7F;
    446 : 7F7F7F;
    447 : 7F7F7F;
    448 : 7F7F7F;
    449 : 7F7F7F;
    44A : 7F7F7F;
    44B : 47937F;
    44C : F2EB;
    44D : F2FF;
    44E : F2FF;
    44F : F2FF;
    450 : F2FF;
    451 : F2FF;
    452 : F2FF;
    453 : F2FF;
    454 : 33F2FF;
    455 : 7F7FAB;
    456 : 7F7F7F;
    457 : 7F7F7F;
    458 : 7F7F7F;
    459 : 7F7F7F;
    45A : 7F7F7F;
    45B : 7F7F7F;
    45C : 7F7F7F;
    45D : 7F7F7F;
    45E : 000;
    45F : 000;
    460 : 000;
    461 : 000;
    462 : 7F7F7F;
    463 : 7F7F7F;
    464 : 7F7F7F;
    465 : 7F7F7F;
    466 : 7F7F7F;
    467 : 7F7F7F;
    468 : 7F7F7F;
    469 : 7F7F7F;
    46A : 7F7F7F;
    46B : 7F7F7F;
    46C : 7F7F7F;
    46D : 7F7F7F;
    46E : 7F7F7F;
    46F : CDAB;
    470 : F2FF;
    471 : F2FF;
    472 : F2FF;
    473 : 7FA7D6;
    474 : 7F7F7F;
    475 : 7F7F7F;
    476 : 7F7F7F;
    477 : 7F7F7F;
    478 : 7F7F7F;
    479 : 7F7F7F;
    47A : 7F7F7F;
    47B : 7F7F7F;
    47C : 7F7F7F;
    47D : 7F7F7F;
    47E : 000;
    47F : 000;
    480 : 000;
    481 : 000;
    482 : 7F7F7F;
    483 : 7F7F7F;
    484 : 7F7F7F;
    485 : 7F7F7F;
    486 : 7F7F7F;
    487 : 7F7F7F;
    488 : 7F7F7F;
    489 : 7F7F7F;
    48A : 7F7F7F;
    48B : 7F7F7F;
    48C : 7F7F7F;
    48D : 6D7F7F;
    48E : DFC1;
    48F : F2FF;
    490 : F2FF;
    491 : F2FF;
    492 : 33F2FF;
    493 : 7F7FAB;
    494 : 7F7F7F;
    495 : 7F7F7F;
    496 : 7F7F7F;
    497 : 7F7F7F;
    498 : 7F7F7F;
    499 : 7F7F7F;
    49A : 7F7F7F;
    49B : 7F7F7F;
    49C : 7F7F7F;
    49D : 7F7F7F;
    49E : 000;
    49F : 000;
    4A0 : 000;
    4A1 : 000;
    4A2 : 7F7F7F;
    4A3 : 7F7F7F;
    4A4 : 7F7F7F;
    4A5 : 7F7F7F;
    4A6 : 7F7F7F;
    4A7 : 7F7F7F;
    4A8 : 7F7F7F;
    4A9 : 47937F;
    4AA : F2EB;
    4AB : F2FF;
    4AC : F2FF;
    4AD : 5ACDFF;
    4AE : 7F7F7F;
    4AF : 7F7F7F;
    4B0 : 1CBA95;
    4B1 : F2FF;
    4B2 : F2FF;
    4B3 : F2FF;
    4B4 : 5ACDFF;
    4B5 : 7F7F7F;
    4B6 : 7F7F7F;
    4B7 : 7F7F7F;
    4B8 : 7F7F7F;
    4B9 : 7F7F7F;
    4BA : 7F7F7F;
    4BB : 7F7F7F;
    4BC : 7F7F7F;
    4BD : 7F7F7F;
    4BE : 000;
    4BF : 000;
    4C0 : 000;
    4C1 : 000;
    4C2 : 7F7F7F;
    4C3 : 7F7F7F;
    4C4 : 7F7F7F;
    4C5 : 7F7F7F;
    4C6 : 7F7F7F;
    4C7 : 7F7F7F;
    4C8 : 7F7F7F;
    4C9 : 7F7F7F;
    4CA : 5A7F7F;
    4CB : F2D6;
    4CC : F2FF;
    4CD : F2FF;
    4CE : F2FF;
    4CF : F2FF;
    4D0 : F2FF;
    4D1 : F2FF;
    4D2 : F2FF;
    4D3 : F2FF;
    4D4 : F2FF;
    4D5 : 47DFFF;
    4D6 : 7F7F95;
    4D7 : 7F7F7F;
    4D8 : 7F7F7F;
    4D9 : 7F7F7F;
    4DA : 7F7F7F;
    4DB : 7F7F7F;
    4DC : 7F7F7F;
    4DD : 7F7F7F;
    4DE : 000;
    4DF : 000;
    4E0 : 000;
    4E1 : 000;
    4E2 : 7F7F7F;
    4E3 : 7F7F7F;
    4E4 : 7F7F7F;
    4E5 : 7F7F7F;
    4E6 : 7F7F7F;
    4E7 : 7F7F7F;
    4E8 : 7F7F7F;
    4E9 : 7F7F7F;
    4EA : 7F7F7F;
    4EB : 7F7F7F;
    4EC : 7F7F7F;
    4ED : 7F7F7F;
    4EE : 1CBA95;
    4EF : F2FF;
    4F0 : F2FF;
    4F1 : F2FF;
    4F2 : F2FF;
    4F3 : 7FA7D6;
    4F4 : 7F7F7F;
    4F5 : 7F7F7F;
    4F6 : 7F7F7F;
    4F7 : 7F7F7F;
    4F8 : 7F7F7F;
    4F9 : 7F7F7F;
    4FA : 7F7F7F;
    4FB : 7F7F7F;
    4FC : 7F7F7F;
    4FD : 7F7F7F;
    4FE : 000;
    4FF : 000;
    500 : 000;
    501 : 000;
    502 : 7F7F7F;
    503 : 7F7F7F;
    504 : 7F7F7F;
    505 : 7F7F7F;
    506 : 7F7F7F;
    507 : 7F7F7F;
    508 : 7F7F7F;
    509 : 7F7F7F;
    50A : 7F7F7F;
    50B : 7F7F7F;
    50C : 7F7F7F;
    50D : 1CBA95;
    50E : F2FF;
    50F : F2FF;
    510 : F2FF;
    511 : F2FF;
    512 : 33F2FF;
    513 : 7F7FAB;
    514 : 7F7F7F;
    515 : 7F7F7F;
    516 : 7F7F7F;
    517 : 7F7F7F;
    518 : 7F7F7F;
    519 : 7F7F7F;
    51A : 7F7F7F;
    51B : 7F7F7F;
    51C : 7F7F7F;
    51D : 7F7F7F;
    51E : 000;
    51F : 000;
    520 : 000;
    521 : 000;
    522 : 7F7F7F;
    523 : 7F7F7F;
    524 : 7F7F7F;
    525 : 7F7F7F;
    526 : 7F7F7F;
    527 : 7F7F7F;
    528 : 7F7F7F;
    529 : 1CBA95;
    52A : F2FF;
    52B : F2FF;
    52C : 33F2FF;
    52D : 7F7FAB;
    52E : 7F7F7F;
    52F : 7F7F7F;
    530 : 6D7F7F;
    531 : DFC1;
    532 : F2FF;
    533 : F2FF;
    534 : 47DFFF;
    535 : 7F7F95;
    536 : 7F7F7F;
    537 : 7F7F7F;
    538 : 7F7F7F;
    539 : 7F7F7F;
    53A : 7F7F7F;
    53B : 7F7F7F;
    53C : 7F7F7F;
    53D : 7F7F7F;
    53E : 000;
    53F : 000;
    540 : 000;
    541 : 000;
    542 : 7F7F7F;
    543 : 7F7F7F;
    544 : 7F7F7F;
    545 : 7F7F7F;
    546 : 7F7F7F;
    547 : 7F7F7F;
    548 : 7F7F7F;
    549 : 7F7F7F;
    54A : 1CBA95;
    54B : F2FF;
    54C : F2FF;
    54D : F2FF;
    54E : 47DFFF;
    54F : 7F7F95;
    550 : 7F7F7F;
    551 : 5A7F7F;
    552 : F2D6;
    553 : F2FF;
    554 : F2FF;
    555 : F2FF;
    556 : 7FA7D6;
    557 : 7F7F7F;
    558 : 7F7F7F;
    559 : 7F7F7F;
    55A : 7F7F7F;
    55B : 7F7F7F;
    55C : 7F7F7F;
    55D : 7F7F7F;
    55E : 000;
    55F : 000;
    560 : 000;
    561 : 000;
    562 : 7F7F7F;
    563 : 7F7F7F;
    564 : 7F7F7F;
    565 : 7F7F7F;
    566 : 7F7F7F;
    567 : 7F7F7F;
    568 : 7F7F7F;
    569 : 7F7F7F;
    56A : 7F7F7F;
    56B : 7F7F7F;
    56C : 6D7F7F;
    56D : DFC1;
    56E : F2FF;
    56F : F2FF;
    570 : F2FF;
    571 : F2FF;
    572 : F2FF;
    573 : 7FA7D6;
    574 : 7F7F7F;
    575 : 7F7F7F;
    576 : 7F7F7F;
    577 : 7F7F7F;
    578 : 7F7F7F;
    579 : 7F7F7F;
    57A : 7F7F7F;
    57B : 7F7F7F;
    57C : 7F7F7F;
    57D : 7F7F7F;
    57E : 000;
    57F : 000;
    580 : 000;
    581 : 000;
    582 : 7F7F7F;
    583 : 7F7F7F;
    584 : 7F7F7F;
    585 : 7F7F7F;
    586 : 7F7F7F;
    587 : 7F7F7F;
    588 : 7F7F7F;
    589 : 7F7F7F;
    58A : 7F7F7F;
    58B : 7F7F7F;
    58C : 47937F;
    58D : F2EB;
    58E : F2FF;
    58F : F2FF;
    590 : F2FF;
    591 : F2FF;
    592 : 33F2FF;
    593 : 7F7FAB;
    594 : 7F7F7F;
    595 : 7F7F7F;
    596 : 7F7F7F;
    597 : 7F7F7F;
    598 : 7F7F7F;
    599 : 7F7F7F;
    59A : 7F7F7F;
    59B : 7F7F7F;
    59C : 7F7F7F;
    59D : 7F7F7F;
    59E : 000;
    59F : 000;
    5A0 : 000;
    5A1 : 000;
    5A2 : 7F7F7F;
    5A3 : 7F7F7F;
    5A4 : 7F7F7F;
    5A5 : 7F7F7F;
    5A6 : 7F7F7F;
    5A7 : 7F7F7F;
    5A8 : 7F7F7F;
    5A9 : 7F7F7F;
    5AA : 7F7F7F;
    5AB : 7F7F7F;
    5AC : 7F7F7F;
    5AD : 7F7F7F;
    5AE : 7F7F7F;
    5AF : 7F7F7F;
    5B0 : 5A7F7F;
    5B1 : F2D6;
    5B2 : F2FF;
    5B3 : F2FF;
    5B4 : 47DFFF;
    5B5 : 7F7F95;
    5B6 : 7F7F7F;
    5B7 : 7F7F7F;
    5B8 : 7F7F7F;
    5B9 : 7F7F7F;
    5BA : 7F7F7F;
    5BB : 7F7F7F;
    5BC : 7F7F7F;
    5BD : 7F7F7F;
    5BE : 000;
    5BF : 000;
    5C0 : 000;
    5C1 : 000;
    5C2 : 7F7F7F;
    5C3 : 7F7F7F;
    5C4 : 7F7F7F;
    5C5 : 7F7F7F;
    5C6 : 7F7F7F;
    5C7 : 7F7F7F;
    5C8 : 7F7F7F;
    5C9 : 7F7F7F;
    5CA : CDAB;
    5CB : F2FF;
    5CC : F2FF;
    5CD : 1CF2FF;
    5CE : 7F93C1;
    5CF : 7F7F7F;
    5D0 : 7F7F7F;
    5D1 : 7F7F7F;
    5D2 : 47937F;
    5D3 : F2EB;
    5D4 : F2FF;
    5D5 : F2FF;
    5D6 : 5ACDFF;
    5D7 : 7F7F7F;
    5D8 : 7F7F7F;
    5D9 : 7F7F7F;
    5DA : 7F7F7F;
    5DB : 7F7F7F;
    5DC : 7F7F7F;
    5DD : 7F7F7F;
    5DE : 000;
    5DF : 000;
    5E0 : 000;
    5E1 : 000;
    5E2 : 7F7F7F;
    5E3 : 7F7F7F;
    5E4 : 7F7F7F;
    5E5 : 7F7F7F;
    5E6 : 7F7F7F;
    5E7 : 7F7F7F;
    5E8 : 7F7F7F;
    5E9 : 7F7F7F;
    5EA : 7F7F7F;
    5EB : 1CBA95;
    5EC : F2FF;
    5ED : F2FF;
    5EE : F2FF;
    5EF : F2FF;
    5F0 : F2FF;
    5F1 : F2FF;
    5F2 : F2FF;
    5F3 : 7FA7D6;
    5F4 : 7F7F7F;
    5F5 : 7F7F7F;
    5F6 : 7F7F7F;
    5F7 : 7F7F7F;
    5F8 : 7F7F7F;
    5F9 : 7F7F7F;
    5FA : 7F7F7F;
    5FB : 7F7F7F;
    5FC : 7F7F7F;
    5FD : 7F7F7F;
    5FE : 000;
    5FF : 000;
    600 : 000;
    601 : 000;
    602 : 7F7F7F;
    603 : 7F7F7F;
    604 : 7F7F7F;
    605 : 7F7F7F;
    606 : 7F7F7F;
    607 : 7F7F7F;
    608 : 7F7F7F;
    609 : 7F7F7F;
    60A : 7F7F7F;
    60B : 6D7F7F;
    60C : DFC1;
    60D : F2FF;
    60E : F2FF;
    60F : F2FF;
    610 : F2FF;
    611 : F2FF;
    612 : 33F2FF;
    613 : 7F7FAB;
    614 : 7F7F7F;
    615 : 7F7F7F;
    616 : 7F7F7F;
    617 : 7F7F7F;
    618 : 7F7F7F;
    619 : 7F7F7F;
    61A : 7F7F7F;
    61B : 7F7F7F;
    61C : 7F7F7F;
    61D : 7F7F7F;
    61E : 000;
    61F : 000;
    620 : 000;
    621 : 000;
    622 : 7F7F7F;
    623 : 7F7F7F;
    624 : 7F7F7F;
    625 : 7F7F7F;
    626 : 7F7F7F;
    627 : 7F7F7F;
    628 : 7F7F7F;
    629 : 7F7F7F;
    62A : 7F7F7F;
    62B : 7F7F7F;
    62C : 7F7F7F;
    62D : 7F7F7F;
    62E : 7F7F7F;
    62F : 7F7F7F;
    630 : CDAB;
    631 : F2FF;
    632 : F2FF;
    633 : F2FF;
    634 : 7FA7D6;
    635 : 7F7F7F;
    636 : 7F7F7F;
    637 : 7F7F7F;
    638 : 7F7F7F;
    639 : 7F7F7F;
    63A : 7F7F7F;
    63B : 7F7F7F;
    63C : 7F7F7F;
    63D : 7F7F7F;
    63E : 000;
    63F : 000;
    640 : 000;
    641 : 000;
    642 : 7F7F7F;
    643 : 7F7F7F;
    644 : 7F7F7F;
    645 : 7F7F7F;
    646 : 7F7F7F;
    647 : 7F7F7F;
    648 : 7F7F7F;
    649 : 5A7F7F;
    64A : F2D6;
    64B : F2FF;
    64C : F2FF;
    64D : 47DFFF;
    64E : 7F7F95;
    64F : 7F7F7F;
    650 : 7F7F7F;
    651 : 7F7F7F;
    652 : 5A7F7F;
    653 : F2D6;
    654 : F2FF;
    655 : F2FF;
    656 : 5ACDFF;
    657 : 7F7F7F;
    658 : 7F7F7F;
    659 : 7F7F7F;
    65A : 7F7F7F;
    65B : 7F7F7F;
    65C : 7F7F7F;
    65D : 7F7F7F;
    65E : 000;
    65F : 000;
    660 : 000;
    661 : 000;
    662 : 7F7F7F;
    663 : 7F7F7F;
    664 : 7F7F7F;
    665 : 7F7F7F;
    666 : 7F7F7F;
    667 : 7F7F7F;
    668 : 7F7F7F;
    669 : 7F7F7F;
    66A : CDAB;
    66B : F2FF;
    66C : F2FF;
    66D : F2FF;
    66E : F2FF;
    66F : F2FF;
    670 : F2FF;
    671 : F2FF;
    672 : F2FF;
    673 : 7FA7D6;
    674 : 7F7F7F;
    675 : 7F7F7F;
    676 : 7F7F7F;
    677 : 7F7F7F;
    678 : 7F7F7F;
    679 : 7F7F7F;
    67A : 7F7F7F;
    67B : 7F7F7F;
    67C : 7F7F7F;
    67D : 7F7F7F;
    67E : 000;
    67F : 000;
    680 : 000;
    681 : 000;
    682 : 7F7F7F;
    683 : 7F7F7F;
    684 : 7F7F7F;
    685 : 7F7F7F;
    686 : 7F7F7F;
    687 : 7F7F7F;
    688 : 7F7F7F;
    689 : 7F7F7F;
    68A : 7F7F7F;
    68B : 33A77F;
    68C : F2FF;
    68D : F2FF;
    68E : 33DFFF;
    68F : DFD6;
    690 : F2FF;
    691 : F2FF;
    692 : 33F2FF;
    693 : 7F7FAB;
    694 : 7F7F7F;
    695 : 7F7F7F;
    696 : 7F7F7F;
    697 : 7F7F7F;
    698 : 7F7F7F;
    699 : 7F7F7F;
    69A : 7F7F7F;
    69B : 7F7F7F;
    69C : 7F7F7F;
    69D : 7F7F7F;
    69E : 000;
    69F : 000;
    6A0 : 000;
    6A1 : 000;
    6A2 : 7F7F7F;
    6A3 : 7F7F7F;
    6A4 : 7F7F7F;
    6A5 : 7F7F7F;
    6A6 : 7F7F7F;
    6A7 : 7F7F7F;
    6A8 : 7F7F7F;
    6A9 : 7F7F7F;
    6AA : 7F7F7F;
    6AB : 7F7F7F;
    6AC : 7F7F7F;
    6AD : 7F7F7F;
    6AE : CDAB;
    6AF : F2FF;
    6B0 : F2FF;
    6B1 : F2FF;
    6B2 : F2FF;
    6B3 : 6DBAEB;
    6B4 : 7F7F7F;
    6B5 : 7F7F7F;
    6B6 : 7F7F7F;
    6B7 : 7F7F7F;
    6B8 : 7F7F7F;
    6B9 : 7F7F7F;
    6BA : 7F7F7F;
    6BB : 7F7F7F;
    6BC : 7F7F7F;
    6BD : 7F7F7F;
    6BE : 000;
    6BF : 000;
    6C0 : 000;
    6C1 : 000;
    6C2 : 7F7F7F;
    6C3 : 7F7F7F;
    6C4 : 7F7F7F;
    6C5 : 7F7F7F;
    6C6 : 7F7F7F;
    6C7 : 7F7F7F;
    6C8 : 7F7F7F;
    6C9 : 7F7F7F;
    6CA : 7F7F7F;
    6CB : 7F7F7F;
    6CC : 7F7F7F;
    6CD : 7F7F7F;
    6CE : 7F7F7F;
    6CF : 7F7F7F;
    6D0 : 7F7F7F;
    6D1 : 7F7F7F;
    6D2 : 5A7F7F;
    6D3 : F2D6;
    6D4 : F2FF;
    6D5 : F2FF;
    6D6 : 5ACDFF;
    6D7 : 7F7F7F;
    6D8 : 7F7F7F;
    6D9 : 7F7F7F;
    6DA : 7F7F7F;
    6DB : 7F7F7F;
    6DC : 7F7F7F;
    6DD : 7F7F7F;
    6DE : 000;
    6DF : 000;
    6E0 : 000;
    6E1 : 000;
    6E2 : 7F7F7F;
    6E3 : 7F7F7F;
    6E4 : 7F7F7F;
    6E5 : 7F7F7F;
    6E6 : 7F7F7F;
    6E7 : 7F7F7F;
    6E8 : 7F7F7F;
    6E9 : 7F7F7F;
    6EA : CDAB;
    6EB : F2FF;
    6EC : F2FF;
    6ED : F2FF;
    6EE : 6DBAEB;
    6EF : CDAB;
    6F0 : F2FF;
    6F1 : F2FF;
    6F2 : F2FF;
    6F3 : 7FA7D6;
    6F4 : 7F7F7F;
    6F5 : 7F7F7F;
    6F6 : 7F7F7F;
    6F7 : 7F7F7F;
    6F8 : 7F7F7F;
    6F9 : 7F7F7F;
    6FA : 7F7F7F;
    6FB : 7F7F7F;
    6FC : 7F7F7F;
    6FD : 7F7F7F;
    6FE : 000;
    6FF : 000;
    700 : 000;
    701 : 000;
    702 : 7F7F7F;
    703 : 7F7F7F;
    704 : 7F7F7F;
    705 : 7F7F7F;
    706 : 7F7F7F;
    707 : 7F7F7F;
    708 : 7F7F7F;
    709 : 7F7F7F;
    70A : 5A7F7F;
    70B : F2D6;
    70C : F2FF;
    70D : F2FF;
    70E : 6DA7D6;
    70F : DFC1;
    710 : F2FF;
    711 : F2FF;
    712 : 33F2FF;
    713 : 7F7FAB;
    714 : 7F7F7F;
    715 : 7F7F7F;
    716 : 7F7F7F;
    717 : 7F7F7F;
    718 : 7F7F7F;
    719 : 7F7F7F;
    71A : 7F7F7F;
    71B : 7F7F7F;
    71C : 7F7F7F;
    71D : 7F7F7F;
    71E : 000;
    71F : 000;
    720 : 000;
    721 : 000;
    722 : 7F7F7F;
    723 : 7F7F7F;
    724 : 7F7F7F;
    725 : 7F7F7F;
    726 : 7F7F7F;
    727 : 7F7F7F;
    728 : 7F7F7F;
    729 : 7F7F7F;
    72A : 7F7F7F;
    72B : 7F7F7F;
    72C : 7F7F7F;
    72D : 6D7F7F;
    72E : DFC1;
    72F : F2FF;
    730 : F2FF;
    731 : 1CF2FF;
    732 : 7F93C1;
    733 : 7F7F7F;
    734 : 7F7F7F;
    735 : 7F7F7F;
    736 : 7F7F7F;
    737 : 7F7F7F;
    738 : 7F7F7F;
    739 : 7F7F7F;
    73A : 7F7F7F;
    73B : 7F7F7F;
    73C : 7F7F7F;
    73D : 7F7F7F;
    73E : 000;
    73F : 000;
    740 : 000;
    741 : 000;
    742 : 7F7F7F;
    743 : 7F7F7F;
    744 : 7F7F7F;
    745 : 7F7F7F;
    746 : 7F7F7F;
    747 : 7F7F7F;
    748 : 7F7F7F;
    749 : 7F7F7F;
    74A : 7F7F7F;
    74B : 7F7F7F;
    74C : 7F7F7F;
    74D : 7F7F7F;
    74E : 7F7F7F;
    74F : 7F7F7F;
    750 : 7F7F7F;
    751 : 7F7F7F;
    752 : 33A77F;
    753 : F2FF;
    754 : F2FF;
    755 : F2FF;
    756 : 6DBAEB;
    757 : 7F7F7F;
    758 : 7F7F7F;
    759 : 7F7F7F;
    75A : 7F7F7F;
    75B : 7F7F7F;
    75C : 7F7F7F;
    75D : 7F7F7F;
    75E : 000;
    75F : 000;
    760 : 000;
    761 : 000;
    762 : 7F7F7F;
    763 : 7F7F7F;
    764 : 7F7F7F;
    765 : 7F7F7F;
    766 : 7F7F7F;
    767 : 7F7F7F;
    768 : 7F7F7F;
    769 : 7F7F7F;
    76A : CDAB;
    76B : F2FF;
    76C : 1CF2FF;
    76D : 7F93C1;
    76E : 7F7F7F;
    76F : CDAB;
    770 : F2FF;
    771 : F2FF;
    772 : F2FF;
    773 : 7FA7D6;
    774 : 7F7F7F;
    775 : 7F7F7F;
    776 : 7F7F7F;
    777 : 7F7F7F;
    778 : 7F7F7F;
    779 : 7F7F7F;
    77A : 7F7F7F;
    77B : 7F7F7F;
    77C : 7F7F7F;
    77D : 7F7F7F;
    77E : 000;
    77F : 000;
    780 : 000;
    781 : 000;
    782 : 7F7F7F;
    783 : 7F7F7F;
    784 : 7F7F7F;
    785 : 7F7F7F;
    786 : 7F7F7F;
    787 : 7F7F7F;
    788 : 7F7F7F;
    789 : 7F7F7F;
    78A : CDAB;
    78B : F2FF;
    78C : F2FF;
    78D : 5ACDFF;
    78E : 6D7F7F;
    78F : DFC1;
    790 : F2FF;
    791 : F2FF;
    792 : 33F2FF;
    793 : 7F7FAB;
    794 : 7F7F7F;
    795 : 7F7F7F;
    796 : 7F7F7F;
    797 : 7F7F7F;
    798 : 7F7F7F;
    799 : 7F7F7F;
    79A : 7F7F7F;
    79B : 7F7F7F;
    79C : 7F7F7F;
    79D : 7F7F7F;
    79E : 000;
    79F : 000;
    7A0 : 000;
    7A1 : 000;
    7A2 : 7F7F7F;
    7A3 : 7F7F7F;
    7A4 : 7F7F7F;
    7A5 : 7F7F7F;
    7A6 : 7F7F7F;
    7A7 : 7F7F7F;
    7A8 : 7F7F7F;
    7A9 : 7F7F7F;
    7AA : 7F7F7F;
    7AB : 7F7F7F;
    7AC : 7F7F7F;
    7AD : 5A7F7F;
    7AE : F2D6;
    7AF : F2FF;
    7B0 : F2FF;
    7B1 : F2FF;
    7B2 : F2FF;
    7B3 : 1CF2FF;
    7B4 : 7F93C1;
    7B5 : 7F7F7F;
    7B6 : 7F7F7F;
    7B7 : 7F7F7F;
    7B8 : 7F7F7F;
    7B9 : 7F7F7F;
    7BA : 7F7F7F;
    7BB : 7F7F7F;
    7BC : 7F7F7F;
    7BD : 7F7F7F;
    7BE : 000;
    7BF : 000;
    7C0 : 000;
    7C1 : 000;
    7C2 : 7F7F7F;
    7C3 : 7F7F7F;
    7C4 : 7F7F7F;
    7C5 : 7F7F7F;
    7C6 : 7F7F7F;
    7C7 : 7F7F7F;
    7C8 : 7F7F7F;
    7C9 : 7F7F7F;
    7CA : 7F7F7F;
    7CB : 7F7F7F;
    7CC : 7F7F7F;
    7CD : 7F7F7F;
    7CE : 7F7F7F;
    7CF : 7F7F7F;
    7D0 : 7F7F7F;
    7D1 : 5A7F7F;
    7D2 : F2D6;
    7D3 : F2FF;
    7D4 : F2FF;
    7D5 : 1CF2FF;
    7D6 : 7F93C1;
    7D7 : 7F7F7F;
    7D8 : 7F7F7F;
    7D9 : 7F7F7F;
    7DA : 7F7F7F;
    7DB : 7F7F7F;
    7DC : 7F7F7F;
    7DD : 7F7F7F;
    7DE : 000;
    7DF : 000;
    7E0 : 000;
    7E1 : 000;
    7E2 : 7F7F7F;
    7E3 : 7F7F7F;
    7E4 : 7F7F7F;
    7E5 : 7F7F7F;
    7E6 : 7F7F7F;
    7E7 : 7F7F7F;
    7E8 : 7F7F7F;
    7E9 : 7F7F7F;
    7EA : CDAB;
    7EB : 6DBAEB;
    7EC : 7F7F7F;
    7ED : 7F7F7F;
    7EE : 7F7F7F;
    7EF : CDAB;
    7F0 : F2FF;
    7F1 : F2FF;
    7F2 : F2FF;
    7F3 : 7FA7D6;
    7F4 : 7F7F7F;
    7F5 : 7F7F7F;
    7F6 : 7F7F7F;
    7F7 : 7F7F7F;
    7F8 : 7F7F7F;
    7F9 : 7F7F7F;
    7FA : 7F7F7F;
    7FB : 7F7F7F;
    7FC : 7F7F7F;
    7FD : 7F7F7F;
    7FE : 000;
    7FF : 000;
END;

