WIDTH=24;
DEPTH=1024;

ADDRESS_RADIX=HEX;
DATA_RADIX=HEX;

CONTENT BEGIN

    0 : 000;
    1 : 000;
    2 : 000;
    3 : 000;
    4 : 000;
    5 : 000;
    6 : 000;
    7 : 000;
    8 : 000;
    9 : 000;
    A : 000;
    B : 000;
    C : 000;
    D : 000;
    E : 000;
    F : 000;
    10 : 000;
    11 : 000;
    12 : 000;
    13 : 000;
    14 : 000;
    15 : 000;
    16 : 000;
    17 : 000;
    18 : 000;
    19 : 000;
    1A : 000;
    1B : 000;
    1C : 000;
    1D : 000;
    1E : 000;
    1F : 000;
    20 : 000;
    21 : 000;
    22 : 000;
    23 : 000;
    24 : 000;
    25 : 000;
    26 : 000;
    27 : 000;
    28 : 000;
    29 : 000;
    2A : 000;
    2B : 000;
    2C : 000;
    2D : 000;
    2E : 000;
    2F : 000;
    30 : 000;
    31 : 000;
    32 : 000;
    33 : 000;
    34 : 000;
    35 : 000;
    36 : 000;
    37 : 000;
    38 : 000;
    39 : 000;
    3A : 000;
    3B : 000;
    3C : 000;
    3D : 000;
    3E : 000;
    3F : 000;
    40 : 000;
    41 : 000;
    42 : 000;
    43 : 000;
    44 : 000;
    45 : 000;
    46 : 000;
    47 : 000;
    48 : 000;
    49 : 000;
    4A : 000;
    4B : 000;
    4C : 000;
    4D : 000;
    4E : 000;
    4F : 000;
    50 : 000;
    51 : 000;
    52 : 000;
    53 : 000;
    54 : 000;
    55 : 000;
    56 : 000;
    57 : 000;
    58 : 000;
    59 : 000;
    5A : 000;
    5B : 000;
    5C : 000;
    5D : 000;
    5E : 000;
    5F : 000;
    60 : 000;
    61 : 000;
    62 : 000;
    63 : 000;
    64 : 000;
    65 : 000;
    66 : 000;
    67 : 000;
    68 : 000;
    69 : 000;
    6A : 000;
    6B : 000;
    6C : 000;
    6D : 000;
    6E : 000;
    6F : 000;
    70 : 000;
    71 : 000;
    72 : 000;
    73 : 000;
    74 : 000;
    75 : 000;
    76 : 000;
    77 : 000;
    78 : 000;
    79 : 000;
    7A : 000;
    7B : 000;
    7C : 000;
    7D : 000;
    7E : 000;
    7F : 000;
    80 : 000;
    81 : 000;
    82 : 7F7F7F;
    83 : 7F7F7F;
    84 : 7F7F7F;
    85 : 7F7F7F;
    86 : 7F7F7F;
    87 : 7F7F7F;
    88 : 7F7F7F;
    89 : 7F7F7F;
    8A : 7F7F7F;
    8B : 7F7F7F;
    8C : 7F7F7F;
    8D : 7F7F7F;
    8E : 7F7F7F;
    8F : 7F7F7F;
    90 : 7F7F7F;
    91 : 7F7F7F;
    92 : 7F7F7F;
    93 : 7F7F7F;
    94 : 7F7F7F;
    95 : 7F7F7F;
    96 : 7F7F7F;
    97 : 7F7F7F;
    98 : 7F7F7F;
    99 : 7F7F7F;
    9A : 7F7F7F;
    9B : 7F7F7F;
    9C : 7F7F7F;
    9D : 7F7F7F;
    9E : 000;
    9F : 000;
    A0 : 000;
    A1 : 000;
    A2 : 7F7F7F;
    A3 : 7F7F7F;
    A4 : 7F7F7F;
    A5 : 7F7F7F;
    A6 : 7F7F7F;
    A7 : 7F7F7F;
    A8 : 7F7F7F;
    A9 : 7F7F7F;
    AA : 7F7F7F;
    AB : 7F7F7F;
    AC : 7F7F7F;
    AD : 7F7F7F;
    AE : 7F7F7F;
    AF : 7F7F7F;
    B0 : 7F7F7F;
    B1 : 7F7F7F;
    B2 : 7F7F7F;
    B3 : 7F7F7F;
    B4 : 7F7F7F;
    B5 : 7F7F7F;
    B6 : 7F7F7F;
    B7 : 7F7F7F;
    B8 : 7F7F7F;
    B9 : 7F7F7F;
    BA : 7F7F7F;
    BB : 7F7F7F;
    BC : 7F7F7F;
    BD : 7F7F7F;
    BE : 000;
    BF : 000;
    C0 : 000;
    C1 : 000;
    C2 : 7F7F7F;
    C3 : 7F7F7F;
    C4 : 7F7F7F;
    C5 : 7F7F7F;
    C6 : 7F7F7F;
    C7 : 7F7F7F;
    C8 : 7F7F7F;
    C9 : 7F7F7F;
    CA : 7F7F7F;
    CB : 7F7F7F;
    CC : 7F7F7F;
    CD : 7F7F7F;
    CE : 7F7F7F;
    CF : 7F7F7F;
    D0 : 7F7F7F;
    D1 : 7F7F7F;
    D2 : 7F7F7F;
    D3 : 7F7F7F;
    D4 : 7F7F7F;
    D5 : 7F7F7F;
    D6 : 7F7F7F;
    D7 : 7F7F7F;
    D8 : 7F7F7F;
    D9 : 7F7F7F;
    DA : 7F7F7F;
    DB : 7F7F7F;
    DC : 7F7F7F;
    DD : 7F7F7F;
    DE : 000;
    DF : 000;
    E0 : 000;
    E1 : 000;
    E2 : 7F7F7F;
    E3 : 7F7F7F;
    E4 : 7F7F7F;
    E5 : 7F7F7F;
    E6 : 7F7F7F;
    E7 : 7F7F7F;
    E8 : 7F7F7F;
    E9 : 7F7F7F;
    EA : 7F7F7F;
    EB : 7F7F7F;
    EC : 7F7F7F;
    ED : 7F7F7F;
    EE : 7F7F7F;
    EF : 7F7F7F;
    F0 : 7F7F7F;
    F1 : 7F7F7F;
    F2 : 7F7F7F;
    F3 : 7F7F7F;
    F4 : 7F7F7F;
    F5 : 7F7F7F;
    F6 : 7F7F7F;
    F7 : 7F7F7F;
    F8 : 7F7F7F;
    F9 : 7F7F7F;
    FA : 7F7F7F;
    FB : 7F7F7F;
    FC : 7F7F7F;
    FD : 7F7F7F;
    FE : 000;
    FF : 000;
    100 : 000;
    101 : 000;
    102 : 7F7F7F;
    103 : 7F7F7F;
    104 : 7F7F7F;
    105 : 7F7F7F;
    106 : 7F7F7F;
    107 : 7F7F7F;
    108 : 7F7F7F;
    109 : 7F7F7F;
    10A : 7F7F7F;
    10B : 7F7F7F;
    10C : 7F7F7F;
    10D : 7F7F7F;
    10E : 7F7F7F;
    10F : 7F7F7F;
    110 : 7F7F7F;
    111 : 7F7F7F;
    112 : 7F7F7F;
    113 : 7F7F7F;
    114 : 7F7F7F;
    115 : 7F7F7F;
    116 : 7F7F7F;
    117 : 7F7F7F;
    118 : 7F7F7F;
    119 : 7F7F7F;
    11A : 7F7F7F;
    11B : 7F7F7F;
    11C : 7F7F7F;
    11D : 7F7F7F;
    11E : 000;
    11F : 000;
    120 : 000;
    121 : 000;
    122 : 7F7F7F;
    123 : 7F7F7F;
    124 : 7F7F7F;
    125 : 7F7F7F;
    126 : 7F7F7F;
    127 : 7F7F7F;
    128 : 7F7F7F;
    129 : 7F7F7F;
    12A : 7F7F7F;
    12B : 7F7F7F;
    12C : 7F7F7F;
    12D : 7F7F7F;
    12E : 7F7F7F;
    12F : 7F7F7F;
    130 : 7F7F7F;
    131 : 7F7F7F;
    132 : 7F7F7F;
    133 : 7F7F7F;
    134 : 7F7F7F;
    135 : 7F7F7F;
    136 : 7F7F7F;
    137 : 7F7F7F;
    138 : 7F7F7F;
    139 : 7F7F7F;
    13A : 7F7F7F;
    13B : 7F7F7F;
    13C : 7F7F7F;
    13D : 7F7F7F;
    13E : 000;
    13F : 000;
    140 : 000;
    141 : 000;
    142 : 7F7F7F;
    143 : 7F7F7F;
    144 : 7F7F7F;
    145 : 7F7F7F;
    146 : 7F7F7F;
    147 : 7F7F7F;
    148 : 7F7F7F;
    149 : 7F7F7F;
    14A : 7F7F7F;
    14B : 7F7F7F;
    14C : 7F7F7F;
    14D : 7F7F7F;
    14E : 7F7F7F;
    14F : 7F7F7F;
    150 : 7F7F7F;
    151 : 7F7F7F;
    152 : 7F7F7F;
    153 : 7F7F7F;
    154 : 7F7F7F;
    155 : 7F7F7F;
    156 : 7F7F7F;
    157 : 7F7F7F;
    158 : 7F7F7F;
    159 : 7F7F7F;
    15A : 7F7F7F;
    15B : 7F7F7F;
    15C : 7F7F7F;
    15D : 7F7F7F;
    15E : 000;
    15F : 000;
    160 : 000;
    161 : 000;
    162 : 7F7F7F;
    163 : 7F7F7F;
    164 : 7F7F7F;
    165 : 7F7F7F;
    166 : 7F7F7F;
    167 : 7F7F7F;
    168 : 7F7F7F;
    169 : 7F7F7F;
    16A : 7F7F7F;
    16B : 7F7F7F;
    16C : 7F7F7F;
    16D : 7F7F7F;
    16E : 7F7F7F;
    16F : 7F7F7F;
    170 : 7F7F7F;
    171 : 7F7F7F;
    172 : 7F7F7F;
    173 : 7F7F7F;
    174 : 7F7F7F;
    175 : 7F7F7F;
    176 : 7F7F7F;
    177 : 7F7F7F;
    178 : 7F7F7F;
    179 : 7F7F7F;
    17A : 7F7F7F;
    17B : 7F7F7F;
    17C : 7F7F7F;
    17D : 7F7F7F;
    17E : 000;
    17F : 000;
    180 : 000;
    181 : 000;
    182 : 7F7F7F;
    183 : 7F7F7F;
    184 : 7F7F7F;
    185 : 7F7F7F;
    186 : 7F7F7F;
    187 : 7F7F7F;
    188 : 7F7F7F;
    189 : 7F7F7F;
    18A : 7F7F7F;
    18B : 7F7F7F;
    18C : 7F7F7F;
    18D : 7F7F7F;
    18E : 7F7F7F;
    18F : 7F7F7F;
    190 : 7F7F7F;
    191 : 7F7F7F;
    192 : 7F7F7F;
    193 : 7F7F7F;
    194 : 7F7F7F;
    195 : 7F7F7F;
    196 : 7F7F7F;
    197 : 7F7F7F;
    198 : 7F7F7F;
    199 : 7F7F7F;
    19A : 7F7F7F;
    19B : 7F7F7F;
    19C : 7F7F7F;
    19D : 7F7F7F;
    19E : 000;
    19F : 000;
    1A0 : 000;
    1A1 : 000;
    1A2 : 7F7F7F;
    1A3 : 7F7F7F;
    1A4 : 7F7F7F;
    1A5 : 7F7F7F;
    1A6 : 7F7F7F;
    1A7 : 7F7F7F;
    1A8 : 7F7F7F;
    1A9 : 7F7F7F;
    1AA : 7F7F7F;
    1AB : 7F7F7F;
    1AC : 7F7F7F;
    1AD : 7F7F7F;
    1AE : 7F7F7F;
    1AF : 7F7F7F;
    1B0 : 7F7F7F;
    1B1 : 7F7F7F;
    1B2 : 7F7F7F;
    1B3 : 7F7F7F;
    1B4 : 7F7F7F;
    1B5 : 7F7F7F;
    1B6 : 7F7F7F;
    1B7 : 7F7F7F;
    1B8 : 7F7F7F;
    1B9 : 7F7F7F;
    1BA : 7F7F7F;
    1BB : 7F7F7F;
    1BC : 7F7F7F;
    1BD : 7F7F7F;
    1BE : 000;
    1BF : 000;
    1C0 : 000;
    1C1 : 000;
    1C2 : 7F7F7F;
    1C3 : 7F7F7F;
    1C4 : 7F7F7F;
    1C5 : 7F7F7F;
    1C6 : 7F7F7F;
    1C7 : 7F7F7F;
    1C8 : 7F7F7F;
    1C9 : 7F7F7F;
    1CA : 7F7F7F;
    1CB : 7F7F7F;
    1CC : 7F7F7F;
    1CD : 33A77F;
    1CE : F2FF;
    1CF : F2FF;
    1D0 : F2FF;
    1D1 : F2FF;
    1D2 : F2FF;
    1D3 : 7FA7D6;
    1D4 : 7F7F7F;
    1D5 : 7F7F7F;
    1D6 : 7F7F7F;
    1D7 : 7F7F7F;
    1D8 : 7F7F7F;
    1D9 : 7F7F7F;
    1DA : 7F7F7F;
    1DB : 7F7F7F;
    1DC : 7F7F7F;
    1DD : 7F7F7F;
    1DE : 000;
    1DF : 000;
    1E0 : 000;
    1E1 : 000;
    1E2 : 7F7F7F;
    1E3 : 7F7F7F;
    1E4 : 7F7F7F;
    1E5 : 7F7F7F;
    1E6 : 7F7F7F;
    1E7 : 7F7F7F;
    1E8 : 7F7F7F;
    1E9 : 7F7F7F;
    1EA : 7F7F7F;
    1EB : 7F7F7F;
    1EC : 7F7F7F;
    1ED : 7F7F7F;
    1EE : 7F7F7F;
    1EF : 5A7F7F;
    1F0 : F2D6;
    1F1 : F2FF;
    1F2 : F2FF;
    1F3 : 7FA7D6;
    1F4 : 7F7F7F;
    1F5 : 7F7F7F;
    1F6 : 7F7F7F;
    1F7 : 7F7F7F;
    1F8 : 7F7F7F;
    1F9 : 7F7F7F;
    1FA : 7F7F7F;
    1FB : 7F7F7F;
    1FC : 7F7F7F;
    1FD : 7F7F7F;
    1FE : 000;
    1FF : 000;
    200 : 000;
    201 : 000;
    202 : 7F7F7F;
    203 : 7F7F7F;
    204 : 7F7F7F;
    205 : 7F7F7F;
    206 : 7F7F7F;
    207 : 7F7F7F;
    208 : 7F7F7F;
    209 : 7F7F7F;
    20A : 7F7F7F;
    20B : 47937F;
    20C : F2EB;
    20D : F2FF;
    20E : F2FF;
    20F : F2FF;
    210 : F2FF;
    211 : F2FF;
    212 : F2FF;
    213 : F2FF;
    214 : 33F2FF;
    215 : 7F7FAB;
    216 : 7F7F7F;
    217 : 7F7F7F;
    218 : 7F7F7F;
    219 : 7F7F7F;
    21A : 7F7F7F;
    21B : 7F7F7F;
    21C : 7F7F7F;
    21D : 7F7F7F;
    21E : 000;
    21F : 000;
    220 : 000;
    221 : 000;
    222 : 7F7F7F;
    223 : 7F7F7F;
    224 : 7F7F7F;
    225 : 7F7F7F;
    226 : 7F7F7F;
    227 : 7F7F7F;
    228 : 7F7F7F;
    229 : 7F7F7F;
    22A : 7F7F7F;
    22B : 7F7F7F;
    22C : 7F7F7F;
    22D : 7F7F7F;
    22E : 7F7F7F;
    22F : CDAB;
    230 : F2FF;
    231 : F2FF;
    232 : F2FF;
    233 : 7FA7D6;
    234 : 7F7F7F;
    235 : 7F7F7F;
    236 : 7F7F7F;
    237 : 7F7F7F;
    238 : 7F7F7F;
    239 : 7F7F7F;
    23A : 7F7F7F;
    23B : 7F7F7F;
    23C : 7F7F7F;
    23D : 7F7F7F;
    23E : 000;
    23F : 000;
    240 : 000;
    241 : 000;
    242 : 7F7F7F;
    243 : 7F7F7F;
    244 : 7F7F7F;
    245 : 7F7F7F;
    246 : 7F7F7F;
    247 : 7F7F7F;
    248 : 7F7F7F;
    249 : 7F7F7F;
    24A : 5A7F7F;
    24B : F2D6;
    24C : F2FF;
    24D : F2FF;
    24E : F2FF;
    24F : F2FF;
    250 : F2FF;
    251 : F2FF;
    252 : F2FF;
    253 : F2FF;
    254 : F2FF;
    255 : 47DFFF;
    256 : 7F7F95;
    257 : 7F7F7F;
    258 : 7F7F7F;
    259 : 7F7F7F;
    25A : 7F7F7F;
    25B : 7F7F7F;
    25C : 7F7F7F;
    25D : 7F7F7F;
    25E : 000;
    25F : 000;
    260 : 000;
    261 : 000;
    262 : 7F7F7F;
    263 : 7F7F7F;
    264 : 7F7F7F;
    265 : 7F7F7F;
    266 : 7F7F7F;
    267 : 7F7F7F;
    268 : 7F7F7F;
    269 : 7F7F7F;
    26A : 7F7F7F;
    26B : 7F7F7F;
    26C : 7F7F7F;
    26D : 7F7F7F;
    26E : 1CBA95;
    26F : F2FF;
    270 : F2FF;
    271 : F2FF;
    272 : F2FF;
    273 : 7FA7D6;
    274 : 7F7F7F;
    275 : 7F7F7F;
    276 : 7F7F7F;
    277 : 7F7F7F;
    278 : 7F7F7F;
    279 : 7F7F7F;
    27A : 7F7F7F;
    27B : 7F7F7F;
    27C : 7F7F7F;
    27D : 7F7F7F;
    27E : 000;
    27F : 000;
    280 : 000;
    281 : 000;
    282 : 7F7F7F;
    283 : 7F7F7F;
    284 : 7F7F7F;
    285 : 7F7F7F;
    286 : 7F7F7F;
    287 : 7F7F7F;
    288 : 7F7F7F;
    289 : 7F7F7F;
    28A : 1CBA95;
    28B : F2FF;
    28C : F2FF;
    28D : F2FF;
    28E : 47DFFF;
    28F : 7F7F95;
    290 : 7F7F7F;
    291 : 5A7F7F;
    292 : F2D6;
    293 : F2FF;
    294 : F2FF;
    295 : F2FF;
    296 : 7FA7D6;
    297 : 7F7F7F;
    298 : 7F7F7F;
    299 : 7F7F7F;
    29A : 7F7F7F;
    29B : 7F7F7F;
    29C : 7F7F7F;
    29D : 7F7F7F;
    29E : 000;
    29F : 000;
    2A0 : 000;
    2A1 : 000;
    2A2 : 7F7F7F;
    2A3 : 7F7F7F;
    2A4 : 7F7F7F;
    2A5 : 7F7F7F;
    2A6 : 7F7F7F;
    2A7 : 7F7F7F;
    2A8 : 7F7F7F;
    2A9 : 7F7F7F;
    2AA : 7F7F7F;
    2AB : 7F7F7F;
    2AC : 6D7F7F;
    2AD : DFC1;
    2AE : F2FF;
    2AF : F2FF;
    2B0 : F2FF;
    2B1 : F2FF;
    2B2 : F2FF;
    2B3 : 7FA7D6;
    2B4 : 7F7F7F;
    2B5 : 7F7F7F;
    2B6 : 7F7F7F;
    2B7 : 7F7F7F;
    2B8 : 7F7F7F;
    2B9 : 7F7F7F;
    2BA : 7F7F7F;
    2BB : 7F7F7F;
    2BC : 7F7F7F;
    2BD : 7F7F7F;
    2BE : 000;
    2BF : 000;
    2C0 : 000;
    2C1 : 000;
    2C2 : 7F7F7F;
    2C3 : 7F7F7F;
    2C4 : 7F7F7F;
    2C5 : 7F7F7F;
    2C6 : 7F7F7F;
    2C7 : 7F7F7F;
    2C8 : 7F7F7F;
    2C9 : 7F7F7F;
    2CA : CDAB;
    2CB : F2FF;
    2CC : F2FF;
    2CD : 1CF2FF;
    2CE : 7F93C1;
    2CF : 7F7F7F;
    2D0 : 7F7F7F;
    2D1 : 7F7F7F;
    2D2 : 47937F;
    2D3 : F2EB;
    2D4 : F2FF;
    2D5 : F2FF;
    2D6 : 5ACDFF;
    2D7 : 7F7F7F;
    2D8 : 7F7F7F;
    2D9 : 7F7F7F;
    2DA : 7F7F7F;
    2DB : 7F7F7F;
    2DC : 7F7F7F;
    2DD : 7F7F7F;
    2DE : 000;
    2DF : 000;
    2E0 : 000;
    2E1 : 000;
    2E2 : 7F7F7F;
    2E3 : 7F7F7F;
    2E4 : 7F7F7F;
    2E5 : 7F7F7F;
    2E6 : 7F7F7F;
    2E7 : 7F7F7F;
    2E8 : 7F7F7F;
    2E9 : 7F7F7F;
    2EA : 7F7F7F;
    2EB : 1CBA95;
    2EC : F2FF;
    2ED : F2FF;
    2EE : F2FF;
    2EF : F2FF;
    2F0 : F2FF;
    2F1 : F2FF;
    2F2 : F2FF;
    2F3 : 7FA7D6;
    2F4 : 7F7F7F;
    2F5 : 7F7F7F;
    2F6 : 7F7F7F;
    2F7 : 7F7F7F;
    2F8 : 7F7F7F;
    2F9 : 7F7F7F;
    2FA : 7F7F7F;
    2FB : 7F7F7F;
    2FC : 7F7F7F;
    2FD : 7F7F7F;
    2FE : 000;
    2FF : 000;
    300 : 000;
    301 : 000;
    302 : 7F7F7F;
    303 : 7F7F7F;
    304 : 7F7F7F;
    305 : 7F7F7F;
    306 : 7F7F7F;
    307 : 7F7F7F;
    308 : 7F7F7F;
    309 : 5A7F7F;
    30A : F2D6;
    30B : F2FF;
    30C : F2FF;
    30D : 47DFFF;
    30E : 7F7F95;
    30F : 7F7F7F;
    310 : 7F7F7F;
    311 : 7F7F7F;
    312 : 5A7F7F;
    313 : F2D6;
    314 : F2FF;
    315 : F2FF;
    316 : 5ACDFF;
    317 : 7F7F7F;
    318 : 7F7F7F;
    319 : 7F7F7F;
    31A : 7F7F7F;
    31B : 7F7F7F;
    31C : 7F7F7F;
    31D : 7F7F7F;
    31E : 000;
    31F : 000;
    320 : 000;
    321 : 000;
    322 : 7F7F7F;
    323 : 7F7F7F;
    324 : 7F7F7F;
    325 : 7F7F7F;
    326 : 7F7F7F;
    327 : 7F7F7F;
    328 : 7F7F7F;
    329 : 7F7F7F;
    32A : CDAB;
    32B : F2FF;
    32C : F2FF;
    32D : F2FF;
    32E : F2FF;
    32F : F2FF;
    330 : F2FF;
    331 : F2FF;
    332 : F2FF;
    333 : 7FA7D6;
    334 : 7F7F7F;
    335 : 7F7F7F;
    336 : 7F7F7F;
    337 : 7F7F7F;
    338 : 7F7F7F;
    339 : 7F7F7F;
    33A : 7F7F7F;
    33B : 7F7F7F;
    33C : 7F7F7F;
    33D : 7F7F7F;
    33E : 000;
    33F : 000;
    340 : 000;
    341 : 000;
    342 : 7F7F7F;
    343 : 7F7F7F;
    344 : 7F7F7F;
    345 : 7F7F7F;
    346 : 7F7F7F;
    347 : 7F7F7F;
    348 : 7F7F7F;
    349 : 7F7F7F;
    34A : 7F7F7F;
    34B : 7F7F7F;
    34C : 7F7F7F;
    34D : 7F7F7F;
    34E : 7F7F7F;
    34F : 7F7F7F;
    350 : 7F7F7F;
    351 : 7F7F7F;
    352 : 5A7F7F;
    353 : F2D6;
    354 : F2FF;
    355 : F2FF;
    356 : 5ACDFF;
    357 : 7F7F7F;
    358 : 7F7F7F;
    359 : 7F7F7F;
    35A : 7F7F7F;
    35B : 7F7F7F;
    35C : 7F7F7F;
    35D : 7F7F7F;
    35E : 000;
    35F : 000;
    360 : 000;
    361 : 000;
    362 : 7F7F7F;
    363 : 7F7F7F;
    364 : 7F7F7F;
    365 : 7F7F7F;
    366 : 7F7F7F;
    367 : 7F7F7F;
    368 : 7F7F7F;
    369 : 7F7F7F;
    36A : CDAB;
    36B : F2FF;
    36C : F2FF;
    36D : F2FF;
    36E : 6DBAEB;
    36F : CDAB;
    370 : F2FF;
    371 : F2FF;
    372 : F2FF;
    373 : 7FA7D6;
    374 : 7F7F7F;
    375 : 7F7F7F;
    376 : 7F7F7F;
    377 : 7F7F7F;
    378 : 7F7F7F;
    379 : 7F7F7F;
    37A : 7F7F7F;
    37B : 7F7F7F;
    37C : 7F7F7F;
    37D : 7F7F7F;
    37E : 000;
    37F : 000;
    380 : 000;
    381 : 000;
    382 : 7F7F7F;
    383 : 7F7F7F;
    384 : 7F7F7F;
    385 : 7F7F7F;
    386 : 7F7F7F;
    387 : 7F7F7F;
    388 : 7F7F7F;
    389 : 7F7F7F;
    38A : 7F7F7F;
    38B : 7F7F7F;
    38C : 7F7F7F;
    38D : 7F7F7F;
    38E : 7F7F7F;
    38F : 7F7F7F;
    390 : 7F7F7F;
    391 : 7F7F7F;
    392 : 33A77F;
    393 : F2FF;
    394 : F2FF;
    395 : F2FF;
    396 : 6DBAEB;
    397 : 7F7F7F;
    398 : 7F7F7F;
    399 : 7F7F7F;
    39A : 7F7F7F;
    39B : 7F7F7F;
    39C : 7F7F7F;
    39D : 7F7F7F;
    39E : 000;
    39F : 000;
    3A0 : 000;
    3A1 : 000;
    3A2 : 7F7F7F;
    3A3 : 7F7F7F;
    3A4 : 7F7F7F;
    3A5 : 7F7F7F;
    3A6 : 7F7F7F;
    3A7 : 7F7F7F;
    3A8 : 7F7F7F;
    3A9 : 7F7F7F;
    3AA : CDAB;
    3AB : F2FF;
    3AC : 1CF2FF;
    3AD : 7F93C1;
    3AE : 7F7F7F;
    3AF : CDAB;
    3B0 : F2FF;
    3B1 : F2FF;
    3B2 : F2FF;
    3B3 : 7FA7D6;
    3B4 : 7F7F7F;
    3B5 : 7F7F7F;
    3B6 : 7F7F7F;
    3B7 : 7F7F7F;
    3B8 : 7F7F7F;
    3B9 : 7F7F7F;
    3BA : 7F7F7F;
    3BB : 7F7F7F;
    3BC : 7F7F7F;
    3BD : 7F7F7F;
    3BE : 000;
    3BF : 000;
    3C0 : 000;
    3C1 : 000;
    3C2 : 7F7F7F;
    3C3 : 7F7F7F;
    3C4 : 7F7F7F;
    3C5 : 7F7F7F;
    3C6 : 7F7F7F;
    3C7 : 7F7F7F;
    3C8 : 7F7F7F;
    3C9 : 7F7F7F;
    3CA : 7F7F7F;
    3CB : 7F7F7F;
    3CC : 7F7F7F;
    3CD : 7F7F7F;
    3CE : 7F7F7F;
    3CF : 7F7F7F;
    3D0 : 7F7F7F;
    3D1 : 5A7F7F;
    3D2 : F2D6;
    3D3 : F2FF;
    3D4 : F2FF;
    3D5 : 1CF2FF;
    3D6 : 7F93C1;
    3D7 : 7F7F7F;
    3D8 : 7F7F7F;
    3D9 : 7F7F7F;
    3DA : 7F7F7F;
    3DB : 7F7F7F;
    3DC : 7F7F7F;
    3DD : 7F7F7F;
    3DE : 000;
    3DF : 000;
    3E0 : 000;
    3E1 : 000;
    3E2 : 7F7F7F;
    3E3 : 7F7F7F;
    3E4 : 7F7F7F;
    3E5 : 7F7F7F;
    3E6 : 7F7F7F;
    3E7 : 7F7F7F;
    3E8 : 7F7F7F;
    3E9 : 7F7F7F;
    3EA : CDAB;
    3EB : 6DBAEB;
    3EC : 7F7F7F;
    3ED : 7F7F7F;
    3EE : 7F7F7F;
    3EF : CDAB;
    3F0 : F2FF;
    3F1 : F2FF;
    3F2 : F2FF;
    3F3 : 7FA7D6;
    3F4 : 7F7F7F;
    3F5 : 7F7F7F;
    3F6 : 7F7F7F;
    3F7 : 7F7F7F;
    3F8 : 7F7F7F;
    3F9 : 7F7F7F;
    3FA : 7F7F7F;
    3FB : 7F7F7F;
    3FC : 7F7F7F;
    3FD : 7F7F7F;
    3FE : 000;
    3FF : 000;
END;

