WIDTH=24;
DEPTH=1536;

ADDRESS_RADIX=HEX;
DATA_RADIX=HEX;

CONTENT BEGIN

    0 : 000;
    1 : 000;
    2 : 000;
    3 : 000;
    4 : 000;
    5 : 000;
    6 : 000;
    7 : 000;
    8 : 000;
    9 : 000;
    A : 000;
    B : 000;
    C : 000;
    D : 000;
    E : 000;
    F : 000;
    10 : 000;
    11 : 000;
    12 : 000;
    13 : 000;
    14 : 000;
    15 : 000;
    16 : 000;
    17 : 000;
    18 : 000;
    19 : 000;
    1A : 000;
    1B : 000;
    1C : 000;
    1D : 000;
    1E : 000;
    1F : 000;
    20 : 000;
    21 : 000;
    22 : 000;
    23 : 000;
    24 : 000;
    25 : 000;
    26 : 000;
    27 : 000;
    28 : 000;
    29 : 000;
    2A : 000;
    2B : 000;
    2C : 000;
    2D : 000;
    2E : 000;
    2F : 000;
    30 : 000;
    31 : 000;
    32 : 000;
    33 : 000;
    34 : 000;
    35 : 000;
    36 : 000;
    37 : 000;
    38 : 000;
    39 : 000;
    3A : 000;
    3B : 000;
    3C : 000;
    3D : 000;
    3E : 000;
    3F : 000;
    40 : 000;
    41 : 000;
    42 : 000;
    43 : 000;
    44 : 000;
    45 : 000;
    46 : 000;
    47 : 000;
    48 : 000;
    49 : 000;
    4A : 000;
    4B : 000;
    4C : 000;
    4D : 000;
    4E : 000;
    4F : 000;
    50 : 000;
    51 : 000;
    52 : 000;
    53 : 000;
    54 : 000;
    55 : 000;
    56 : 000;
    57 : 000;
    58 : 000;
    59 : 000;
    5A : 000;
    5B : 000;
    5C : 000;
    5D : 000;
    5E : 000;
    5F : 000;
    60 : 000;
    61 : 000;
    62 : 000;
    63 : 000;
    64 : 000;
    65 : 000;
    66 : 000;
    67 : 000;
    68 : 000;
    69 : 000;
    6A : 000;
    6B : 000;
    6C : 000;
    6D : 000;
    6E : 000;
    6F : 000;
    70 : 000;
    71 : 000;
    72 : 000;
    73 : 000;
    74 : 000;
    75 : 000;
    76 : 000;
    77 : 000;
    78 : 000;
    79 : 000;
    7A : 000;
    7B : 000;
    7C : 000;
    7D : 000;
    7E : 000;
    7F : 000;
    80 : 000;
    81 : 000;
    82 : 000;
    83 : 000;
    84 : 000;
    85 : 000;
    86 : 000;
    87 : 000;
    88 : 000;
    89 : 000;
    8A : 000;
    8B : 000;
    8C : 000;
    8D : 000;
    8E : 000;
    8F : 000;
    90 : 000;
    91 : 000;
    92 : 000;
    93 : 000;
    94 : 000;
    95 : 000;
    96 : 000;
    97 : 000;
    98 : 000;
    99 : 000;
    9A : 000;
    9B : 000;
    9C : 000;
    9D : 000;
    9E : 000;
    9F : 000;
    A0 : 000;
    A1 : 000;
    A2 : 000;
    A3 : 000;
    A4 : 000;
    A5 : 000;
    A6 : 000;
    A7 : 000;
    A8 : 000;
    A9 : 000;
    AA : 000;
    AB : 000;
    AC : 000;
    AD : 000;
    AE : 000;
    AF : 000;
    B0 : 000;
    B1 : 000;
    B2 : 000;
    B3 : 000;
    B4 : 000;
    B5 : 000;
    B6 : 000;
    B7 : 000;
    B8 : 000;
    B9 : 000;
    BA : 000;
    BB : 000;
    BC : 000;
    BD : 000;
    BE : 000;
    BF : 000;
    C0 : 000;
    C1 : 000;
    C2 : 7F7F7F;
    C3 : 7F7F7F;
    C4 : 7F7F7F;
    C5 : 7F7F7F;
    C6 : 7F7F7F;
    C7 : 7F7F7F;
    C8 : 7F7F7F;
    C9 : 7F7F7F;
    CA : 7F7F7F;
    CB : 7F7F7F;
    CC : 7F7F7F;
    CD : 7F7F7F;
    CE : 7F7F7F;
    CF : 7F7F7F;
    D0 : 7F7F7F;
    D1 : 7F7F7F;
    D2 : 7F7F7F;
    D3 : 7F7F7F;
    D4 : 7F7F7F;
    D5 : 7F7F7F;
    D6 : 7F7F7F;
    D7 : 7F7F7F;
    D8 : 7F7F7F;
    D9 : 7F7F7F;
    DA : 7F7F7F;
    DB : 7F7F7F;
    DC : 7F7F7F;
    DD : 7F7F7F;
    DE : 000;
    DF : 000;
    E0 : 000;
    E1 : 000;
    E2 : 7F7F7F;
    E3 : 7F7F7F;
    E4 : 7F7F7F;
    E5 : 7F7F7F;
    E6 : 7F7F7F;
    E7 : 7F7F7F;
    E8 : 7F7F7F;
    E9 : 7F7F7F;
    EA : 7F7F7F;
    EB : 7F7F7F;
    EC : 7F7F7F;
    ED : 7F7F7F;
    EE : 7F7F7F;
    EF : 7F7F7F;
    F0 : 7F7F7F;
    F1 : 7F7F7F;
    F2 : 7F7F7F;
    F3 : 7F7F7F;
    F4 : 7F7F7F;
    F5 : 7F7F7F;
    F6 : 7F7F7F;
    F7 : 7F7F7F;
    F8 : 7F7F7F;
    F9 : 7F7F7F;
    FA : 7F7F7F;
    FB : 7F7F7F;
    FC : 7F7F7F;
    FD : 7F7F7F;
    FE : 000;
    FF : 000;
    100 : 000;
    101 : 000;
    102 : 7F7F7F;
    103 : 7F7F7F;
    104 : 7F7F7F;
    105 : 7F7F7F;
    106 : 7F7F7F;
    107 : 7F7F7F;
    108 : 7F7F7F;
    109 : 7F7F7F;
    10A : 7F7F7F;
    10B : 7F7F7F;
    10C : 7F7F7F;
    10D : 7F7F7F;
    10E : 7F7F7F;
    10F : 7F7F7F;
    110 : 7F7F7F;
    111 : 7F7F7F;
    112 : 7F7F7F;
    113 : 7F7F7F;
    114 : 7F7F7F;
    115 : 7F7F7F;
    116 : 7F7F7F;
    117 : 7F7F7F;
    118 : 7F7F7F;
    119 : 7F7F7F;
    11A : 7F7F7F;
    11B : 7F7F7F;
    11C : 7F7F7F;
    11D : 7F7F7F;
    11E : 000;
    11F : 000;
    120 : 000;
    121 : 000;
    122 : 7F7F7F;
    123 : 7F7F7F;
    124 : 7F7F7F;
    125 : 7F7F7F;
    126 : 7F7F7F;
    127 : 7F7F7F;
    128 : 7F7F7F;
    129 : 7F7F7F;
    12A : 7F7F7F;
    12B : 7F7F7F;
    12C : 7F7F7F;
    12D : 7F7F7F;
    12E : 7F7F7F;
    12F : 7F7F7F;
    130 : 7F7F7F;
    131 : 7F7F7F;
    132 : 7F7F7F;
    133 : 7F7F7F;
    134 : 7F7F7F;
    135 : 7F7F7F;
    136 : 7F7F7F;
    137 : 7F7F7F;
    138 : 7F7F7F;
    139 : 7F7F7F;
    13A : 7F7F7F;
    13B : 7F7F7F;
    13C : 7F7F7F;
    13D : 7F7F7F;
    13E : 000;
    13F : 000;
    140 : 000;
    141 : 000;
    142 : 7F7F7F;
    143 : 7F7F7F;
    144 : 7F7F7F;
    145 : 7F7F7F;
    146 : 7F7F7F;
    147 : 7F7F7F;
    148 : 7F7F7F;
    149 : 7F7F7F;
    14A : 7F7F7F;
    14B : 7F7F7F;
    14C : 7F7F7F;
    14D : 7F7F7F;
    14E : 7F7F7F;
    14F : 7F7F7F;
    150 : 7F7F7F;
    151 : 7F7F7F;
    152 : 7F7F7F;
    153 : 7F7F7F;
    154 : 7F7F7F;
    155 : 7F7F7F;
    156 : 7F7F7F;
    157 : 7F7F7F;
    158 : 7F7F7F;
    159 : 7F7F7F;
    15A : 7F7F7F;
    15B : 7F7F7F;
    15C : 7F7F7F;
    15D : 7F7F7F;
    15E : 000;
    15F : 000;
    160 : 000;
    161 : 000;
    162 : 7F7F7F;
    163 : 7F7F7F;
    164 : 7F7F7F;
    165 : 7F7F7F;
    166 : 7F7F7F;
    167 : 7F7F7F;
    168 : 7F7F7F;
    169 : 7F7F7F;
    16A : 7F7F7F;
    16B : 7F7F7F;
    16C : 7F7F7F;
    16D : 7F7F7F;
    16E : 7F7F7F;
    16F : 7F7F7F;
    170 : 7F7F7F;
    171 : 7F7F7F;
    172 : 7F7F7F;
    173 : 7F7F7F;
    174 : 7F7F7F;
    175 : 7F7F7F;
    176 : 7F7F7F;
    177 : 7F7F7F;
    178 : 7F7F7F;
    179 : 7F7F7F;
    17A : 7F7F7F;
    17B : 7F7F7F;
    17C : 7F7F7F;
    17D : 7F7F7F;
    17E : 000;
    17F : 000;
    180 : 000;
    181 : 000;
    182 : 7F7F7F;
    183 : 7F7F7F;
    184 : 7F7F7F;
    185 : 7F7F7F;
    186 : 7F7F7F;
    187 : 7F7F7F;
    188 : 7F7F7F;
    189 : 7F7F7F;
    18A : 7F7F7F;
    18B : 7F7F7F;
    18C : 7F7F7F;
    18D : 7F7F7F;
    18E : 7F7F7F;
    18F : 7F7F7F;
    190 : 7F7F7F;
    191 : 7F7F7F;
    192 : 7F7F7F;
    193 : 7F7F7F;
    194 : 7F7F7F;
    195 : 7F7F7F;
    196 : 7F7F7F;
    197 : 7F7F7F;
    198 : 7F7F7F;
    199 : 7F7F7F;
    19A : 7F7F7F;
    19B : 7F7F7F;
    19C : 7F7F7F;
    19D : 7F7F7F;
    19E : 000;
    19F : 000;
    1A0 : 000;
    1A1 : 000;
    1A2 : 7F7F7F;
    1A3 : 7F7F7F;
    1A4 : 7F7F7F;
    1A5 : 7F7F7F;
    1A6 : 7F7F7F;
    1A7 : 7F7F7F;
    1A8 : 7F7F7F;
    1A9 : 7F7F7F;
    1AA : 7F7F7F;
    1AB : 7F7F7F;
    1AC : 7F7F7F;
    1AD : 7F7F7F;
    1AE : 7F7F7F;
    1AF : 7F7F7F;
    1B0 : 7F7F7F;
    1B1 : 7F7F7F;
    1B2 : 7F7F7F;
    1B3 : 7F7F7F;
    1B4 : 7F7F7F;
    1B5 : 7F7F7F;
    1B6 : 7F7F7F;
    1B7 : 7F7F7F;
    1B8 : 7F7F7F;
    1B9 : 7F7F7F;
    1BA : 7F7F7F;
    1BB : 7F7F7F;
    1BC : 7F7F7F;
    1BD : 7F7F7F;
    1BE : 000;
    1BF : 000;
    1C0 : 000;
    1C1 : 000;
    1C2 : 7F7F7F;
    1C3 : 7F7F7F;
    1C4 : 7F7F7F;
    1C5 : 7F7F7F;
    1C6 : 7F7F7F;
    1C7 : 7F7F7F;
    1C8 : 7F7F7F;
    1C9 : 7F7F7F;
    1CA : 7F7F7F;
    1CB : 7F7F7F;
    1CC : 7F7F7F;
    1CD : 7F7F7F;
    1CE : 7F7F7F;
    1CF : 7F7F7F;
    1D0 : 7F7F7F;
    1D1 : 7F7F7F;
    1D2 : 7F7F7F;
    1D3 : 7F7F7F;
    1D4 : 7F7F7F;
    1D5 : 7F7F7F;
    1D6 : 7F7F7F;
    1D7 : 7F7F7F;
    1D8 : 7F7F7F;
    1D9 : 7F7F7F;
    1DA : 7F7F7F;
    1DB : 7F7F7F;
    1DC : 7F7F7F;
    1DD : 7F7F7F;
    1DE : 000;
    1DF : 000;
    1E0 : 000;
    1E1 : 000;
    1E2 : 7F7F7F;
    1E3 : 7F7F7F;
    1E4 : 7F7F7F;
    1E5 : 7F7F7F;
    1E6 : 7F7F7F;
    1E7 : 7F7F7F;
    1E8 : 7F7F7F;
    1E9 : 7F7F7F;
    1EA : 7F7F7F;
    1EB : 7F7F7F;
    1EC : 7F7F7F;
    1ED : 7F7F7F;
    1EE : 7F7F7F;
    1EF : 7F7F7F;
    1F0 : 7F7F7F;
    1F1 : 7F7F7F;
    1F2 : 7F7F7F;
    1F3 : 7F7F7F;
    1F4 : 7F7F7F;
    1F5 : 7F7F7F;
    1F6 : 7F7F7F;
    1F7 : 7F7F7F;
    1F8 : 7F7F7F;
    1F9 : 7F7F7F;
    1FA : 7F7F7F;
    1FB : 7F7F7F;
    1FC : 7F7F7F;
    1FD : 7F7F7F;
    1FE : 000;
    1FF : 000;
    200 : 000;
    201 : 000;
    202 : 7F7F7F;
    203 : 7F7F7F;
    204 : 7F7F7F;
    205 : 7F7F7F;
    206 : 7F7F7F;
    207 : 7F7F7F;
    208 : 7F7F7F;
    209 : 7F7F7F;
    20A : 7F7F7F;
    20B : 7F7F7F;
    20C : 7F7F7F;
    20D : 7F7F7F;
    20E : 7F7F7F;
    20F : 7F7F7F;
    210 : 7F7F7F;
    211 : 7F7F7F;
    212 : 7F7F7F;
    213 : 7F7F7F;
    214 : 7F7F7F;
    215 : 7F7F7F;
    216 : 7F7F7F;
    217 : 7F7F7F;
    218 : 7F7F7F;
    219 : 7F7F7F;
    21A : 7F7F7F;
    21B : 7F7F7F;
    21C : 7F7F7F;
    21D : 7F7F7F;
    21E : 000;
    21F : 000;
    220 : 000;
    221 : 000;
    222 : 7F7F7F;
    223 : 7F7F7F;
    224 : 7F7F7F;
    225 : 7F7F7F;
    226 : 7F7F7F;
    227 : 7F7F7F;
    228 : 7F7F7F;
    229 : 7F7F7F;
    22A : 7F7F7F;
    22B : 7F7F7F;
    22C : 7F7F7F;
    22D : 7F7F7F;
    22E : 7F7F7F;
    22F : 7F7F7F;
    230 : 7F7F7F;
    231 : 7F7F7F;
    232 : 7F7F7F;
    233 : 7F7F7F;
    234 : 7F7F7F;
    235 : 7F7F7F;
    236 : 7F7F7F;
    237 : 7F7F7F;
    238 : 7F7F7F;
    239 : 7F7F7F;
    23A : 7F7F7F;
    23B : 7F7F7F;
    23C : 7F7F7F;
    23D : 7F7F7F;
    23E : 000;
    23F : 000;
    240 : 000;
    241 : 000;
    242 : 7F7F7F;
    243 : 7F7F7F;
    244 : 7F7F7F;
    245 : 7F7F7F;
    246 : 7F7F7F;
    247 : 7F7F7F;
    248 : 7F7F7F;
    249 : 7F7F7F;
    24A : 7F7F7F;
    24B : 7F7F7F;
    24C : 1CBA95;
    24D : F2FF;
    24E : F2FF;
    24F : F2FF;
    250 : F2FF;
    251 : 47DFFF;
    252 : 7F7F95;
    253 : 7F7F7F;
    254 : 7F7F7F;
    255 : 7F7F7F;
    256 : 7F7F7F;
    257 : 7F7F7F;
    258 : 7F7F7F;
    259 : 7F7F7F;
    25A : 7F7F7F;
    25B : 7F7F7F;
    25C : 7F7F7F;
    25D : 7F7F7F;
    25E : 000;
    25F : 000;
    260 : 000;
    261 : 000;
    262 : 7F7F7F;
    263 : 7F7F7F;
    264 : 7F7F7F;
    265 : 7F7F7F;
    266 : 7F7F7F;
    267 : 7F7F7F;
    268 : 7F7F7F;
    269 : 7F7F7F;
    26A : 7F7F7F;
    26B : 7F7F7F;
    26C : 7F7F7F;
    26D : 7F7F7F;
    26E : 7F7F7F;
    26F : 7F7F7F;
    270 : 7F7F7F;
    271 : 7F7F7F;
    272 : 7F7F7F;
    273 : 7F7F7F;
    274 : 7F7F7F;
    275 : 7F7F7F;
    276 : 7F7F7F;
    277 : 7F7F7F;
    278 : 7F7F7F;
    279 : 7F7F7F;
    27A : 7F7F7F;
    27B : 7F7F7F;
    27C : 7F7F7F;
    27D : 7F7F7F;
    27E : 000;
    27F : 000;
    280 : 000;
    281 : 000;
    282 : 7F7F7F;
    283 : 7F7F7F;
    284 : 7F7F7F;
    285 : 7F7F7F;
    286 : 7F7F7F;
    287 : 7F7F7F;
    288 : 7F7F7F;
    289 : 7F7F7F;
    28A : 7F7F7F;
    28B : 7F7F7F;
    28C : 7F7F7F;
    28D : 7F7F7F;
    28E : 7F7F7F;
    28F : 7F7F7F;
    290 : 7F7F7F;
    291 : 7F7F7F;
    292 : 7F7F7F;
    293 : 7F7F7F;
    294 : 7F7F7F;
    295 : 7F7F7F;
    296 : 7F7F7F;
    297 : 7F7F7F;
    298 : 7F7F7F;
    299 : 7F7F7F;
    29A : 7F7F7F;
    29B : 7F7F7F;
    29C : 7F7F7F;
    29D : 7F7F7F;
    29E : 000;
    29F : 000;
    2A0 : 000;
    2A1 : 000;
    2A2 : 7F7F7F;
    2A3 : 7F7F7F;
    2A4 : 7F7F7F;
    2A5 : 7F7F7F;
    2A6 : 7F7F7F;
    2A7 : 7F7F7F;
    2A8 : 7F7F7F;
    2A9 : 7F7F7F;
    2AA : 5A7F7F;
    2AB : F2D6;
    2AC : F2FF;
    2AD : F2FF;
    2AE : F2FF;
    2AF : F2FF;
    2B0 : F2FF;
    2B1 : F2FF;
    2B2 : F2FF;
    2B3 : 7FA7D6;
    2B4 : 7F7F7F;
    2B5 : 7F7F7F;
    2B6 : 7F7F7F;
    2B7 : 7F7F7F;
    2B8 : 7F7F7F;
    2B9 : 7F7F7F;
    2BA : 7F7F7F;
    2BB : 7F7F7F;
    2BC : 7F7F7F;
    2BD : 7F7F7F;
    2BE : 000;
    2BF : 000;
    2C0 : 000;
    2C1 : 000;
    2C2 : 7F7F7F;
    2C3 : 7F7F7F;
    2C4 : 7F7F7F;
    2C5 : 7F7F7F;
    2C6 : 7F7F7F;
    2C7 : 7F7F7F;
    2C8 : 7F7F7F;
    2C9 : 7F7F7F;
    2CA : 7F7F7F;
    2CB : 7F7F7F;
    2CC : 7F7F7F;
    2CD : 33A77F;
    2CE : F2FF;
    2CF : F2FF;
    2D0 : F2FF;
    2D1 : F2FF;
    2D2 : F2FF;
    2D3 : 7FA7D6;
    2D4 : 7F7F7F;
    2D5 : 7F7F7F;
    2D6 : 7F7F7F;
    2D7 : 7F7F7F;
    2D8 : 7F7F7F;
    2D9 : 7F7F7F;
    2DA : 7F7F7F;
    2DB : 7F7F7F;
    2DC : 7F7F7F;
    2DD : 7F7F7F;
    2DE : 000;
    2DF : 000;
    2E0 : 000;
    2E1 : 000;
    2E2 : 7F7F7F;
    2E3 : 7F7F7F;
    2E4 : 7F7F7F;
    2E5 : 7F7F7F;
    2E6 : 7F7F7F;
    2E7 : 7F7F7F;
    2E8 : 7F7F7F;
    2E9 : 7F7F7F;
    2EA : 7F7F7F;
    2EB : 7F7F7F;
    2EC : 7F7F7F;
    2ED : 7F7F7F;
    2EE : 7F7F7F;
    2EF : 5A7F7F;
    2F0 : F2D6;
    2F1 : F2FF;
    2F2 : F2FF;
    2F3 : 7FA7D6;
    2F4 : 7F7F7F;
    2F5 : 7F7F7F;
    2F6 : 7F7F7F;
    2F7 : 7F7F7F;
    2F8 : 7F7F7F;
    2F9 : 7F7F7F;
    2FA : 7F7F7F;
    2FB : 7F7F7F;
    2FC : 7F7F7F;
    2FD : 7F7F7F;
    2FE : 000;
    2FF : 000;
    300 : 000;
    301 : 000;
    302 : 7F7F7F;
    303 : 7F7F7F;
    304 : 7F7F7F;
    305 : 7F7F7F;
    306 : 7F7F7F;
    307 : 7F7F7F;
    308 : 7F7F7F;
    309 : 6D7F7F;
    30A : DFC1;
    30B : F2FF;
    30C : F2FF;
    30D : F2FF;
    30E : F2FF;
    30F : F2FF;
    310 : F2FF;
    311 : F2FF;
    312 : F2FF;
    313 : 1CF2FF;
    314 : 7F93C1;
    315 : 7F7F7F;
    316 : 7F7F7F;
    317 : 7F7F7F;
    318 : 7F7F7F;
    319 : 7F7F7F;
    31A : 7F7F7F;
    31B : 7F7F7F;
    31C : 7F7F7F;
    31D : 7F7F7F;
    31E : 000;
    31F : 000;
    320 : 000;
    321 : 000;
    322 : 7F7F7F;
    323 : 7F7F7F;
    324 : 7F7F7F;
    325 : 7F7F7F;
    326 : 7F7F7F;
    327 : 7F7F7F;
    328 : 7F7F7F;
    329 : 7F7F7F;
    32A : 7F7F7F;
    32B : 47937F;
    32C : F2EB;
    32D : F2FF;
    32E : F2FF;
    32F : F2FF;
    330 : F2FF;
    331 : F2FF;
    332 : F2FF;
    333 : F2FF;
    334 : 33F2FF;
    335 : 7F7FAB;
    336 : 7F7F7F;
    337 : 7F7F7F;
    338 : 7F7F7F;
    339 : 7F7F7F;
    33A : 7F7F7F;
    33B : 7F7F7F;
    33C : 7F7F7F;
    33D : 7F7F7F;
    33E : 000;
    33F : 000;
    340 : 000;
    341 : 000;
    342 : 7F7F7F;
    343 : 7F7F7F;
    344 : 7F7F7F;
    345 : 7F7F7F;
    346 : 7F7F7F;
    347 : 7F7F7F;
    348 : 7F7F7F;
    349 : 7F7F7F;
    34A : 7F7F7F;
    34B : 7F7F7F;
    34C : 7F7F7F;
    34D : 7F7F7F;
    34E : 7F7F7F;
    34F : CDAB;
    350 : F2FF;
    351 : F2FF;
    352 : F2FF;
    353 : 7FA7D6;
    354 : 7F7F7F;
    355 : 7F7F7F;
    356 : 7F7F7F;
    357 : 7F7F7F;
    358 : 7F7F7F;
    359 : 7F7F7F;
    35A : 7F7F7F;
    35B : 7F7F7F;
    35C : 7F7F7F;
    35D : 7F7F7F;
    35E : 000;
    35F : 000;
    360 : 000;
    361 : 000;
    362 : 7F7F7F;
    363 : 7F7F7F;
    364 : 7F7F7F;
    365 : 7F7F7F;
    366 : 7F7F7F;
    367 : 7F7F7F;
    368 : 7F7F7F;
    369 : 47937F;
    36A : F2EB;
    36B : F2FF;
    36C : F2FF;
    36D : 5ACDFF;
    36E : 7F7F7F;
    36F : 7F7F7F;
    370 : 1CBA95;
    371 : F2FF;
    372 : F2FF;
    373 : F2FF;
    374 : 5ACDFF;
    375 : 7F7F7F;
    376 : 7F7F7F;
    377 : 7F7F7F;
    378 : 7F7F7F;
    379 : 7F7F7F;
    37A : 7F7F7F;
    37B : 7F7F7F;
    37C : 7F7F7F;
    37D : 7F7F7F;
    37E : 000;
    37F : 000;
    380 : 000;
    381 : 000;
    382 : 7F7F7F;
    383 : 7F7F7F;
    384 : 7F7F7F;
    385 : 7F7F7F;
    386 : 7F7F7F;
    387 : 7F7F7F;
    388 : 7F7F7F;
    389 : 7F7F7F;
    38A : 5A7F7F;
    38B : F2D6;
    38C : F2FF;
    38D : F2FF;
    38E : F2FF;
    38F : F2FF;
    390 : F2FF;
    391 : F2FF;
    392 : F2FF;
    393 : F2FF;
    394 : F2FF;
    395 : 47DFFF;
    396 : 7F7F95;
    397 : 7F7F7F;
    398 : 7F7F7F;
    399 : 7F7F7F;
    39A : 7F7F7F;
    39B : 7F7F7F;
    39C : 7F7F7F;
    39D : 7F7F7F;
    39E : 000;
    39F : 000;
    3A0 : 000;
    3A1 : 000;
    3A2 : 7F7F7F;
    3A3 : 7F7F7F;
    3A4 : 7F7F7F;
    3A5 : 7F7F7F;
    3A6 : 7F7F7F;
    3A7 : 7F7F7F;
    3A8 : 7F7F7F;
    3A9 : 7F7F7F;
    3AA : 7F7F7F;
    3AB : 7F7F7F;
    3AC : 7F7F7F;
    3AD : 7F7F7F;
    3AE : 1CBA95;
    3AF : F2FF;
    3B0 : F2FF;
    3B1 : F2FF;
    3B2 : F2FF;
    3B3 : 7FA7D6;
    3B4 : 7F7F7F;
    3B5 : 7F7F7F;
    3B6 : 7F7F7F;
    3B7 : 7F7F7F;
    3B8 : 7F7F7F;
    3B9 : 7F7F7F;
    3BA : 7F7F7F;
    3BB : 7F7F7F;
    3BC : 7F7F7F;
    3BD : 7F7F7F;
    3BE : 000;
    3BF : 000;
    3C0 : 000;
    3C1 : 000;
    3C2 : 7F7F7F;
    3C3 : 7F7F7F;
    3C4 : 7F7F7F;
    3C5 : 7F7F7F;
    3C6 : 7F7F7F;
    3C7 : 7F7F7F;
    3C8 : 7F7F7F;
    3C9 : 1CBA95;
    3CA : F2FF;
    3CB : F2FF;
    3CC : 33F2FF;
    3CD : 7F7FAB;
    3CE : 7F7F7F;
    3CF : 7F7F7F;
    3D0 : 6D7F7F;
    3D1 : DFC1;
    3D2 : F2FF;
    3D3 : F2FF;
    3D4 : 47DFFF;
    3D5 : 7F7F95;
    3D6 : 7F7F7F;
    3D7 : 7F7F7F;
    3D8 : 7F7F7F;
    3D9 : 7F7F7F;
    3DA : 7F7F7F;
    3DB : 7F7F7F;
    3DC : 7F7F7F;
    3DD : 7F7F7F;
    3DE : 000;
    3DF : 000;
    3E0 : 000;
    3E1 : 000;
    3E2 : 7F7F7F;
    3E3 : 7F7F7F;
    3E4 : 7F7F7F;
    3E5 : 7F7F7F;
    3E6 : 7F7F7F;
    3E7 : 7F7F7F;
    3E8 : 7F7F7F;
    3E9 : 7F7F7F;
    3EA : 1CBA95;
    3EB : F2FF;
    3EC : F2FF;
    3ED : F2FF;
    3EE : 47DFFF;
    3EF : 7F7F95;
    3F0 : 7F7F7F;
    3F1 : 5A7F7F;
    3F2 : F2D6;
    3F3 : F2FF;
    3F4 : F2FF;
    3F5 : F2FF;
    3F6 : 7FA7D6;
    3F7 : 7F7F7F;
    3F8 : 7F7F7F;
    3F9 : 7F7F7F;
    3FA : 7F7F7F;
    3FB : 7F7F7F;
    3FC : 7F7F7F;
    3FD : 7F7F7F;
    3FE : 000;
    3FF : 000;
    400 : 000;
    401 : 000;
    402 : 7F7F7F;
    403 : 7F7F7F;
    404 : 7F7F7F;
    405 : 7F7F7F;
    406 : 7F7F7F;
    407 : 7F7F7F;
    408 : 7F7F7F;
    409 : 7F7F7F;
    40A : 7F7F7F;
    40B : 7F7F7F;
    40C : 6D7F7F;
    40D : DFC1;
    40E : F2FF;
    40F : F2FF;
    410 : F2FF;
    411 : F2FF;
    412 : F2FF;
    413 : 7FA7D6;
    414 : 7F7F7F;
    415 : 7F7F7F;
    416 : 7F7F7F;
    417 : 7F7F7F;
    418 : 7F7F7F;
    419 : 7F7F7F;
    41A : 7F7F7F;
    41B : 7F7F7F;
    41C : 7F7F7F;
    41D : 7F7F7F;
    41E : 000;
    41F : 000;
    420 : 000;
    421 : 000;
    422 : 7F7F7F;
    423 : 7F7F7F;
    424 : 7F7F7F;
    425 : 7F7F7F;
    426 : 7F7F7F;
    427 : 7F7F7F;
    428 : 7F7F7F;
    429 : 7F7F7F;
    42A : 7F7F7F;
    42B : 7F7F7F;
    42C : 7F7F7F;
    42D : 7F7F7F;
    42E : 7F7F7F;
    42F : 7F7F7F;
    430 : 5A7F7F;
    431 : F2D6;
    432 : F2FF;
    433 : F2FF;
    434 : 47DFFF;
    435 : 7F7F95;
    436 : 7F7F7F;
    437 : 7F7F7F;
    438 : 7F7F7F;
    439 : 7F7F7F;
    43A : 7F7F7F;
    43B : 7F7F7F;
    43C : 7F7F7F;
    43D : 7F7F7F;
    43E : 000;
    43F : 000;
    440 : 000;
    441 : 000;
    442 : 7F7F7F;
    443 : 7F7F7F;
    444 : 7F7F7F;
    445 : 7F7F7F;
    446 : 7F7F7F;
    447 : 7F7F7F;
    448 : 7F7F7F;
    449 : 7F7F7F;
    44A : CDAB;
    44B : F2FF;
    44C : F2FF;
    44D : 1CF2FF;
    44E : 7F93C1;
    44F : 7F7F7F;
    450 : 7F7F7F;
    451 : 7F7F7F;
    452 : 47937F;
    453 : F2EB;
    454 : F2FF;
    455 : F2FF;
    456 : 5ACDFF;
    457 : 7F7F7F;
    458 : 7F7F7F;
    459 : 7F7F7F;
    45A : 7F7F7F;
    45B : 7F7F7F;
    45C : 7F7F7F;
    45D : 7F7F7F;
    45E : 000;
    45F : 000;
    460 : 000;
    461 : 000;
    462 : 7F7F7F;
    463 : 7F7F7F;
    464 : 7F7F7F;
    465 : 7F7F7F;
    466 : 7F7F7F;
    467 : 7F7F7F;
    468 : 7F7F7F;
    469 : 7F7F7F;
    46A : 7F7F7F;
    46B : 1CBA95;
    46C : F2FF;
    46D : F2FF;
    46E : F2FF;
    46F : F2FF;
    470 : F2FF;
    471 : F2FF;
    472 : F2FF;
    473 : 7FA7D6;
    474 : 7F7F7F;
    475 : 7F7F7F;
    476 : 7F7F7F;
    477 : 7F7F7F;
    478 : 7F7F7F;
    479 : 7F7F7F;
    47A : 7F7F7F;
    47B : 7F7F7F;
    47C : 7F7F7F;
    47D : 7F7F7F;
    47E : 000;
    47F : 000;
    480 : 000;
    481 : 000;
    482 : 7F7F7F;
    483 : 7F7F7F;
    484 : 7F7F7F;
    485 : 7F7F7F;
    486 : 7F7F7F;
    487 : 7F7F7F;
    488 : 7F7F7F;
    489 : 7F7F7F;
    48A : 7F7F7F;
    48B : 7F7F7F;
    48C : 7F7F7F;
    48D : 7F7F7F;
    48E : 7F7F7F;
    48F : 7F7F7F;
    490 : CDAB;
    491 : F2FF;
    492 : F2FF;
    493 : F2FF;
    494 : 7FA7D6;
    495 : 7F7F7F;
    496 : 7F7F7F;
    497 : 7F7F7F;
    498 : 7F7F7F;
    499 : 7F7F7F;
    49A : 7F7F7F;
    49B : 7F7F7F;
    49C : 7F7F7F;
    49D : 7F7F7F;
    49E : 000;
    49F : 000;
    4A0 : 000;
    4A1 : 000;
    4A2 : 7F7F7F;
    4A3 : 7F7F7F;
    4A4 : 7F7F7F;
    4A5 : 7F7F7F;
    4A6 : 7F7F7F;
    4A7 : 7F7F7F;
    4A8 : 7F7F7F;
    4A9 : 5A7F7F;
    4AA : F2D6;
    4AB : F2FF;
    4AC : F2FF;
    4AD : 47DFFF;
    4AE : 7F7F95;
    4AF : 7F7F7F;
    4B0 : 7F7F7F;
    4B1 : 7F7F7F;
    4B2 : 5A7F7F;
    4B3 : F2D6;
    4B4 : F2FF;
    4B5 : F2FF;
    4B6 : 5ACDFF;
    4B7 : 7F7F7F;
    4B8 : 7F7F7F;
    4B9 : 7F7F7F;
    4BA : 7F7F7F;
    4BB : 7F7F7F;
    4BC : 7F7F7F;
    4BD : 7F7F7F;
    4BE : 000;
    4BF : 000;
    4C0 : 000;
    4C1 : 000;
    4C2 : 7F7F7F;
    4C3 : 7F7F7F;
    4C4 : 7F7F7F;
    4C5 : 7F7F7F;
    4C6 : 7F7F7F;
    4C7 : 7F7F7F;
    4C8 : 7F7F7F;
    4C9 : 7F7F7F;
    4CA : CDAB;
    4CB : F2FF;
    4CC : F2FF;
    4CD : F2FF;
    4CE : F2FF;
    4CF : F2FF;
    4D0 : F2FF;
    4D1 : F2FF;
    4D2 : F2FF;
    4D3 : 7FA7D6;
    4D4 : 7F7F7F;
    4D5 : 7F7F7F;
    4D6 : 7F7F7F;
    4D7 : 7F7F7F;
    4D8 : 7F7F7F;
    4D9 : 7F7F7F;
    4DA : 7F7F7F;
    4DB : 7F7F7F;
    4DC : 7F7F7F;
    4DD : 7F7F7F;
    4DE : 000;
    4DF : 000;
    4E0 : 000;
    4E1 : 000;
    4E2 : 7F7F7F;
    4E3 : 7F7F7F;
    4E4 : 7F7F7F;
    4E5 : 7F7F7F;
    4E6 : 7F7F7F;
    4E7 : 7F7F7F;
    4E8 : 7F7F7F;
    4E9 : 7F7F7F;
    4EA : 7F7F7F;
    4EB : 7F7F7F;
    4EC : 7F7F7F;
    4ED : 7F7F7F;
    4EE : CDAB;
    4EF : F2FF;
    4F0 : F2FF;
    4F1 : F2FF;
    4F2 : F2FF;
    4F3 : 6DBAEB;
    4F4 : 7F7F7F;
    4F5 : 7F7F7F;
    4F6 : 7F7F7F;
    4F7 : 7F7F7F;
    4F8 : 7F7F7F;
    4F9 : 7F7F7F;
    4FA : 7F7F7F;
    4FB : 7F7F7F;
    4FC : 7F7F7F;
    4FD : 7F7F7F;
    4FE : 000;
    4FF : 000;
    500 : 000;
    501 : 000;
    502 : 7F7F7F;
    503 : 7F7F7F;
    504 : 7F7F7F;
    505 : 7F7F7F;
    506 : 7F7F7F;
    507 : 7F7F7F;
    508 : 7F7F7F;
    509 : 7F7F7F;
    50A : 7F7F7F;
    50B : 7F7F7F;
    50C : 7F7F7F;
    50D : 7F7F7F;
    50E : 7F7F7F;
    50F : 7F7F7F;
    510 : 7F7F7F;
    511 : 7F7F7F;
    512 : 5A7F7F;
    513 : F2D6;
    514 : F2FF;
    515 : F2FF;
    516 : 5ACDFF;
    517 : 7F7F7F;
    518 : 7F7F7F;
    519 : 7F7F7F;
    51A : 7F7F7F;
    51B : 7F7F7F;
    51C : 7F7F7F;
    51D : 7F7F7F;
    51E : 000;
    51F : 000;
    520 : 000;
    521 : 000;
    522 : 7F7F7F;
    523 : 7F7F7F;
    524 : 7F7F7F;
    525 : 7F7F7F;
    526 : 7F7F7F;
    527 : 7F7F7F;
    528 : 7F7F7F;
    529 : 7F7F7F;
    52A : CDAB;
    52B : F2FF;
    52C : F2FF;
    52D : F2FF;
    52E : 6DBAEB;
    52F : CDAB;
    530 : F2FF;
    531 : F2FF;
    532 : F2FF;
    533 : 7FA7D6;
    534 : 7F7F7F;
    535 : 7F7F7F;
    536 : 7F7F7F;
    537 : 7F7F7F;
    538 : 7F7F7F;
    539 : 7F7F7F;
    53A : 7F7F7F;
    53B : 7F7F7F;
    53C : 7F7F7F;
    53D : 7F7F7F;
    53E : 000;
    53F : 000;
    540 : 000;
    541 : 000;
    542 : 7F7F7F;
    543 : 7F7F7F;
    544 : 7F7F7F;
    545 : 7F7F7F;
    546 : 7F7F7F;
    547 : 7F7F7F;
    548 : 7F7F7F;
    549 : 7F7F7F;
    54A : 7F7F7F;
    54B : 7F7F7F;
    54C : 7F7F7F;
    54D : 6D7F7F;
    54E : DFC1;
    54F : F2FF;
    550 : F2FF;
    551 : 1CF2FF;
    552 : 7F93C1;
    553 : 7F7F7F;
    554 : 7F7F7F;
    555 : 7F7F7F;
    556 : 7F7F7F;
    557 : 7F7F7F;
    558 : 7F7F7F;
    559 : 7F7F7F;
    55A : 7F7F7F;
    55B : 7F7F7F;
    55C : 7F7F7F;
    55D : 7F7F7F;
    55E : 000;
    55F : 000;
    560 : 000;
    561 : 000;
    562 : 7F7F7F;
    563 : 7F7F7F;
    564 : 7F7F7F;
    565 : 7F7F7F;
    566 : 7F7F7F;
    567 : 7F7F7F;
    568 : 7F7F7F;
    569 : 7F7F7F;
    56A : 7F7F7F;
    56B : 7F7F7F;
    56C : 7F7F7F;
    56D : 7F7F7F;
    56E : 7F7F7F;
    56F : 7F7F7F;
    570 : 7F7F7F;
    571 : 7F7F7F;
    572 : 33A77F;
    573 : F2FF;
    574 : F2FF;
    575 : F2FF;
    576 : 6DBAEB;
    577 : 7F7F7F;
    578 : 7F7F7F;
    579 : 7F7F7F;
    57A : 7F7F7F;
    57B : 7F7F7F;
    57C : 7F7F7F;
    57D : 7F7F7F;
    57E : 000;
    57F : 000;
    580 : 000;
    581 : 000;
    582 : 7F7F7F;
    583 : 7F7F7F;
    584 : 7F7F7F;
    585 : 7F7F7F;
    586 : 7F7F7F;
    587 : 7F7F7F;
    588 : 7F7F7F;
    589 : 7F7F7F;
    58A : CDAB;
    58B : F2FF;
    58C : 1CF2FF;
    58D : 7F93C1;
    58E : 7F7F7F;
    58F : CDAB;
    590 : F2FF;
    591 : F2FF;
    592 : F2FF;
    593 : 7FA7D6;
    594 : 7F7F7F;
    595 : 7F7F7F;
    596 : 7F7F7F;
    597 : 7F7F7F;
    598 : 7F7F7F;
    599 : 7F7F7F;
    59A : 7F7F7F;
    59B : 7F7F7F;
    59C : 7F7F7F;
    59D : 7F7F7F;
    59E : 000;
    59F : 000;
    5A0 : 000;
    5A1 : 000;
    5A2 : 7F7F7F;
    5A3 : 7F7F7F;
    5A4 : 7F7F7F;
    5A5 : 7F7F7F;
    5A6 : 7F7F7F;
    5A7 : 7F7F7F;
    5A8 : 7F7F7F;
    5A9 : 7F7F7F;
    5AA : 7F7F7F;
    5AB : 7F7F7F;
    5AC : 7F7F7F;
    5AD : 5A7F7F;
    5AE : F2D6;
    5AF : F2FF;
    5B0 : F2FF;
    5B1 : F2FF;
    5B2 : F2FF;
    5B3 : 1CF2FF;
    5B4 : 7F93C1;
    5B5 : 7F7F7F;
    5B6 : 7F7F7F;
    5B7 : 7F7F7F;
    5B8 : 7F7F7F;
    5B9 : 7F7F7F;
    5BA : 7F7F7F;
    5BB : 7F7F7F;
    5BC : 7F7F7F;
    5BD : 7F7F7F;
    5BE : 000;
    5BF : 000;
    5C0 : 000;
    5C1 : 000;
    5C2 : 7F7F7F;
    5C3 : 7F7F7F;
    5C4 : 7F7F7F;
    5C5 : 7F7F7F;
    5C6 : 7F7F7F;
    5C7 : 7F7F7F;
    5C8 : 7F7F7F;
    5C9 : 7F7F7F;
    5CA : 7F7F7F;
    5CB : 7F7F7F;
    5CC : 7F7F7F;
    5CD : 7F7F7F;
    5CE : 7F7F7F;
    5CF : 7F7F7F;
    5D0 : 7F7F7F;
    5D1 : 5A7F7F;
    5D2 : F2D6;
    5D3 : F2FF;
    5D4 : F2FF;
    5D5 : 1CF2FF;
    5D6 : 7F93C1;
    5D7 : 7F7F7F;
    5D8 : 7F7F7F;
    5D9 : 7F7F7F;
    5DA : 7F7F7F;
    5DB : 7F7F7F;
    5DC : 7F7F7F;
    5DD : 7F7F7F;
    5DE : 000;
    5DF : 000;
    5E0 : 000;
    5E1 : 000;
    5E2 : 7F7F7F;
    5E3 : 7F7F7F;
    5E4 : 7F7F7F;
    5E5 : 7F7F7F;
    5E6 : 7F7F7F;
    5E7 : 7F7F7F;
    5E8 : 7F7F7F;
    5E9 : 7F7F7F;
    5EA : CDAB;
    5EB : 6DBAEB;
    5EC : 7F7F7F;
    5ED : 7F7F7F;
    5EE : 7F7F7F;
    5EF : CDAB;
    5F0 : F2FF;
    5F1 : F2FF;
    5F2 : F2FF;
    5F3 : 7FA7D6;
    5F4 : 7F7F7F;
    5F5 : 7F7F7F;
    5F6 : 7F7F7F;
    5F7 : 7F7F7F;
    5F8 : 7F7F7F;
    5F9 : 7F7F7F;
    5FA : 7F7F7F;
    5FB : 7F7F7F;
    5FC : 7F7F7F;
    5FD : 7F7F7F;
    5FE : 000;
    5FF : 000;
END;

